C12H12ClN5O4S|Chlorsulfuron|mol|1|dock16
  -GOLD-   2292219383D 1   1.00000     0.00000
 
 35 36  0  0  0  0  0  0  0  0  1 V2000
   59.2683  -82.7320  -11.9342 C   0  0  0  0  0  0  0  0  0  0  0  0
   59.5025  -81.7127  -13.0193 C   0  0  0  0  0  0  0  0  0  0  0  0
   59.7896  -80.4633  -12.6992 N   0  0  0  0  0  0  0  0  0  0  0  0
   59.9968  -79.5617  -13.6549 C   0  0  0  0  0  0  0  0  0  0  0  0
   59.9147  -79.9188  -14.9312 N   0  0  0  0  0  0  0  0  0  0  0  0
   59.6262  -81.1746  -15.2486 C   0  0  0  0  0  0  0  0  0  0  0  0
   59.4256  -82.0719  -14.2892 N   0  0  0  0  0  0  0  0  0  0  0  0
   59.5412  -81.5421  -16.5480 O   0  0  0  0  0  0  0  0  0  0  0  0
   58.1868  -81.9353  -16.7784 C   0  0  0  0  0  0  0  0  0  0  0  0
   60.2973  -78.2517  -13.3191 N   0  0  0  0  0  0  0  0  0  0  0  0
   59.9549  -77.2475  -14.1503 C   0  0  0  0  0  0  0  0  0  0  0  0
   59.3825  -77.4912  -15.1946 O   0  0  0  0  0  0  0  0  0  0  0  0
   60.2474  -75.9729  -13.8237 N   0  0  0  0  0  0  0  0  0  0  0  0
   59.9412  -74.7515  -14.8991 S   0  0  0  0  0  0  0  0  0  0  0  0
   58.7026  -75.0794  -15.5135 O   0  0  0  0  0  0  0  0  0  0  0  0
   60.2198  -73.5447  -14.2024 O   0  0  0  0  0  0  0  0  0  0  0  0
   61.1514  -74.8576  -16.1753 C   0  0  0  0  0  0  0  0  0  0  0  0
   60.7976  -74.6015  -17.4864 C   0  0  0  0  0  0  0  0  0  0  0  0
   61.7470  -74.6848  -18.4879 C   0  0  0  0  0  0  0  0  0  0  0  0
   63.0506  -75.0247  -18.1786 C   0  0  0  0  0  0  0  0  0  0  0  0
   63.4057  -75.2816  -16.8676 C   0  0  0  0  0  0  0  0  0  0  0  0
   62.4576  -75.1920  -15.8642 C   0  0  0  0  0  0  0  0  0  0  0  0
   62.9029  -75.5140  -14.2175 Cl  0  0  0  0  0  0  0  0  0  0  0  0
   58.2103  -82.7476  -11.6725 H   0  0  0  0  0  0  0  0  0  0  0  0
   59.5691  -83.7173  -12.2902 H   0  0  0  0  0  0  0  0  0  0  0  0
   59.8561  -82.4682  -11.0549 H   0  0  0  0  0  0  0  0  0  0  0  0
   58.0691  -82.2414  -17.8179 H   0  0  0  0  0  0  0  0  0  0  0  0
   57.9340  -82.7689  -16.1232 H   0  0  0  0  0  0  0  0  0  0  0  0
   57.5241  -81.0953  -16.5697 H   0  0  0  0  0  0  0  0  0  0  0  0
   60.7542  -78.0571  -12.4858 H   0  0  0  0  0  0  0  0  0  0  0  0
   60.6370  -75.7712  -12.9586 H   0  0  0  0  0  0  0  0  0  0  0  0
   59.7790  -74.3365  -17.7288 H   0  0  0  0  0  0  0  0  0  0  0  0
   61.4700  -74.4845  -19.5124 H   0  0  0  0  0  0  0  0  0  0  0  0
   63.7918  -75.0899  -18.9614 H   0  0  0  0  0  0  0  0  0  0  0  0
   64.4241  -75.5480  -16.6261 H   0  0  0  0  0  0  0  0  0  0  0  0
  1  2  1  0  0  0  0
  2  3  2  0  0  0  0
  3  4  1  0  0  0  0
  4  5  2  0  0  0  0
  5  6  1  0  0  0  0
  6  7  2  0  0  0  0
  2  7  1  0  0  0  0
  6  8  1  0  0  0  0
  8  9  1  0  0  0  0
  4 10  1  0  0  0  0
 10 11  1  0  0  0  0
 11 12  2  0  0  0  0
 11 13  1  0  0  0  0
 13 14  1  0  0  0  0
 14 15  2  0  0  0  0
 14 16  2  0  0  0  0
 14 17  1  0  0  0  0
 17 18  2  0  0  0  0
 18 19  1  0  0  0  0
 19 20  2  0  0  0  0
 20 21  1  0  0  0  0
 21 22  2  0  0  0  0
 17 22  1  0  0  0  0
 22 23  1  0  0  0  0
  1 24  1  0  0  0  0
  1 25  1  0  0  0  0
  1 26  1  0  0  0  0
  9 27  1  0  0  0  0
  9 28  1  0  0  0  0
  9 29  1  0  0  0  0
 10 30  1  0  0  0  0
 13 31  1  0  0  0  0
 18 32  1  0  0  0  0
 19 33  1  0  0  0  0
 20 34  1  0  0  0  0
 21 35  1  0  0  0  0
M  END
> <Gold.Version>
2021.2.0

> <Gold.Id.Protein>
5K6Q|5K6Q_protein|mol2

> <Gold.PLP.Fitness>
27.8558

> <Gold.PLP.PLP>
-17.9728

> <Gold.PLP.part.hbond>
-4.0000

> <Gold.PLP.part.metal>
0.0000

> <Gold.PLP.part.buried>
-3.3680

> <Gold.PLP.part.nonpolar>
-11.5390

> <Gold.PLP.part.repulsive>
0.3922

> <Gold.PLP.ligand.clash>
0.0322

> <Gold.PLP.ligand.torsion>
1.8493

> <Gold.PLP.Chemscore.Hbond>
3.4468

> <Gold.PLP.Chemscore.CHOScore>
0.0000

> <Gold.PLP.Chemscore.Metal>
0.0000

> <Gold.Chemscore.Hbonds>
donor molecule, donor type, donor heavy atom, donor atom, acceptor molecule, acceptor atom, score
      L1  H    10    30       P1  2231  1.00
      L1  H    13    31       P1  2223  1.00
      P1  H  2204  6935       L1    16  0.60
      P1  H  2205  6946       L1    16  0.85

> <Gold.PLP.Chemscore.Internal.Correction>
3.2734

> <Gold.Protein.RotatedTorsions>
[ 6459 1704 1703 1701 ] final  -23.20 input   60.01 | X-H torsion
[ 6656 1882 1881 1878 ] final   64.40 input   60.00 | X-H torsion
[ 7002 2256 2255 2252 ] final  172.42 input   60.00 | X-H torsion
[ 6986 2270 2269 2268 ] final -153.82 input   59.99 | X-H torsion
[ 9089 4362 4361 4358 ] final -143.97 input   60.01 | X-H torsion
[ 9191 4472 4471 4469 ] final   63.60 input   60.00 | X-H torsion
[ 9201 4474 4473 4471 ] final  164.38 input   60.00 | X-H torsion
[ 9219 4506 4505 4504 ] final  114.60 input   60.00 | X-H torsion
[ 9220 4508 4507 4505 ] final -163.60 input   60.00 | X-H torsion
[ 9214 4510 4509 4507 ] final  -79.12 input   60.00 | X-H torsion

> <Gold.Protein.ActiveResidues>
 TYR305  THR331  LEU332  MET333  LEU349  GLY350  MET351  HIS352  GLY353  ASN358 
 VAL372  ARG373  PHE374  ASP375  ASP376  ARG377  VAL378  THR379  GLY380  LYS381 
 LEU382  PHE385  ASN404  GLY508  GLY509  TRP574  ILE651  PRO652  SER653  GLY654 
 GLY655  FAD702  HOH839  HOH865  HOH881  HOH913  HOH945  HOH958  HOH960  HOH966 
 HOH968 

> <Gold.Protein.RotatedAtoms>
   60.7690  -72.8319   -3.6200 H   0  0  0  0  0  0  0  0  0  0  0  0  # atno 6459 bound_to 1704
   62.8429  -67.2085   -5.4359 H   0  0  0  0  0  0  0  0  0  0  0  0  # atno 6656 bound_to 1882
   61.9891  -89.6692   -1.1141 H   0  0  0  0  0  0  0  0  0  0  0  0  # atno 6986 bound_to 2270
   62.4190  -90.6119   -2.4079 H   0  0  0  0  0  0  0  0  0  0  0  0  # atno 6987 bound_to 2270
   63.5904  -89.9278   -1.4554 H   0  0  0  0  0  0  0  0  0  0  0  0  # atno 6988 bound_to 2270
   60.3894  -80.4452   -5.5455 H   0  0  0  0  0  0  0  0  0  0  0  0  # atno 7002 bound_to 2256
   68.6543  -81.2905  -12.6851 H   0  0  0  0  0  0  0  0  0  0  0  0  # atno 9089 bound_to 4362
   52.6307  -69.4021   -6.9252 H   0  0  0  0  0  0  0  0  0  0  0  0  # atno 9191 bound_to 4472
   50.6670  -67.0087   -8.0408 H   0  0  0  0  0  0  0  0  0  0  0  0  # atno 9201 bound_to 4474
   62.2141  -72.3365   -7.8886 H   0  0  0  0  0  0  0  0  0  0  0  0  # atno 9214 bound_to 4510
   64.5481  -73.3816  -11.2873 H   0  0  0  0  0  0  0  0  0  0  0  0  # atno 9219 bound_to 4506
   62.3688  -69.1590  -10.5851 H   0  0  0  0  0  0  0  0  0  0  0  0  # atno 9220 bound_to 4508
   59.4194  -73.7394   -3.5634 LP  0  0  0  0  0  0  0  0  0  0  0  0  # atno 9615 bound_to 1704
   60.8390  -74.3484   -3.0339 LP  0  0  0  0  0  0  0  0  0  0  0  0  # atno 9616 bound_to 1704
   62.0996  -67.1175   -3.9911 LP  0  0  0  0  0  0  0  0  0  0  0  0  # atno 9619 bound_to 1882
   61.4627  -68.0331   -5.1839 LP  0  0  0  0  0  0  0  0  0  0  0  0  # atno 9620 bound_to 1882
   61.9622  -80.8630   -5.5471 LP  0  0  0  0  0  0  0  0  0  0  0  0  # atno 9664 bound_to 2256
   61.5126  -79.3621   -6.0072 LP  0  0  0  0  0  0  0  0  0  0  0  0  # atno 9665 bound_to 2256
   70.2062  -81.4123  -12.2106 LP  0  0  0  0  0  0  0  0  0  0  0  0  # atno 9690 bound_to 4362
   69.0736  -80.8564  -11.1739 LP  0  0  0  0  0  0  0  0  0  0  0  0  # atno 9691 bound_to 4362
   53.8218  -70.1625   -7.7320 LP  0  0  0  0  0  0  0  0  0  0  0  0  # atno 9698 bound_to 4472
   52.4444  -69.7473   -8.5045 LP  0  0  0  0  0  0  0  0  0  0  0  0  # atno 9699 bound_to 4472
   51.2209  -68.5322   -7.8988 LP  0  0  0  0  0  0  0  0  0  0  0  0  # atno 9700 bound_to 4474
   51.2760  -67.7715   -9.3428 LP  0  0  0  0  0  0  0  0  0  0  0  0  # atno 9701 bound_to 4474
   65.1168  -72.0407  -12.0129 LP  0  0  0  0  0  0  0  0  0  0  0  0  # atno 9709 bound_to 4506
   63.5078  -72.3053  -11.9257 LP  0  0  0  0  0  0  0  0  0  0  0  0  # atno 9710 bound_to 4506
   63.0011  -70.0121  -11.8182 LP  0  0  0  0  0  0  0  0  0  0  0  0  # atno 9711 bound_to 4508
   63.9801  -69.3652  -10.6825 LP  0  0  0  0  0  0  0  0  0  0  0  0  # atno 9712 bound_to 4508
   63.1044  -71.4019   -6.8977 LP  0  0  0  0  0  0  0  0  0  0  0  0  # atno 9713 bound_to 4510
   63.8099  -72.1652   -8.1570 LP  0  0  0  0  0  0  0  0  0  0  0  0  # atno 9714 bound_to 4510

$$$$
