C12H12ClN5O4S|Chlorsulfuron|mol|1|dock14
  -GOLD-   2292219383D 1   1.00000     0.00000
 
 35 36  0  0  0  0  0  0  0  0  1 V2000
   66.4417  -73.4166  -14.4479 C   0  0  0  0  0  0  0  0  0  0  0  0
   65.3214  -74.2658  -14.9912 C   0  0  0  0  0  0  0  0  0  0  0  0
   64.4572  -74.8254  -14.1631 N   0  0  0  0  0  0  0  0  0  0  0  0
   63.4675  -75.5753  -14.6400 C   0  0  0  0  0  0  0  0  0  0  0  0
   63.3491  -75.7609  -15.9494 N   0  0  0  0  0  0  0  0  0  0  0  0
   64.2191  -75.1971  -16.7779 C   0  0  0  0  0  0  0  0  0  0  0  0
   65.2024  -74.4446  -16.2956 N   0  0  0  0  0  0  0  0  0  0  0  0
   64.1020  -75.3844  -18.1128 O   0  0  0  0  0  0  0  0  0  0  0  0
   63.9427  -74.0909  -18.6990 C   0  0  0  0  0  0  0  0  0  0  0  0
   62.5618  -76.1624  -13.7715 N   0  0  0  0  0  0  0  0  0  0  0  0
   61.2380  -76.0176  -13.9793 C   0  0  0  0  0  0  0  0  0  0  0  0
   60.8388  -75.3718  -14.9287 O   0  0  0  0  0  0  0  0  0  0  0  0
   60.3568  -76.5886  -13.1344 N   0  0  0  0  0  0  0  0  0  0  0  0
   58.7348  -76.3076  -13.3152 S   0  0  0  0  0  0  0  0  0  0  0  0
   58.1259  -76.7784  -12.1208 O   0  0  0  0  0  0  0  0  0  0  0  0
   58.6267  -74.9869  -13.8284 O   0  0  0  0  0  0  0  0  0  0  0  0
   58.1563  -77.3682  -14.5978 C   0  0  0  0  0  0  0  0  0  0  0  0
   58.1348  -76.9230  -15.9058 C   0  0  0  0  0  0  0  0  0  0  0  0
   57.6807  -77.7550  -16.9123 C   0  0  0  0  0  0  0  0  0  0  0  0
   57.2476  -79.0325  -16.6108 C   0  0  0  0  0  0  0  0  0  0  0  0
   57.2681  -79.4790  -15.3028 C   0  0  0  0  0  0  0  0  0  0  0  0
   57.7284  -78.6491  -14.2962 C   0  0  0  0  0  0  0  0  0  0  0  0
   57.7550  -79.2093  -12.6532 Cl  0  0  0  0  0  0  0  0  0  0  0  0
   67.3115  -74.0439  -14.2532 H   0  0  0  0  0  0  0  0  0  0  0  0
   66.7027  -72.6496  -15.1770 H   0  0  0  0  0  0  0  0  0  0  0  0
   66.1209  -72.9422  -13.5204 H   0  0  0  0  0  0  0  0  0  0  0  0
   63.8439  -74.1915  -19.7798 H   0  0  0  0  0  0  0  0  0  0  0  0
   63.0484  -73.6165  -18.2949 H   0  0  0  0  0  0  0  0  0  0  0  0
   64.8143  -73.4780  -18.4692 H   0  0  0  0  0  0  0  0  0  0  0  0
   62.8803  -76.6776  -13.0139 H   0  0  0  0  0  0  0  0  0  0  0  0
   60.6726  -77.1643  -12.4205 H   0  0  0  0  0  0  0  0  0  0  0  0
   58.4725  -75.9246  -16.1419 H   0  0  0  0  0  0  0  0  0  0  0  0
   57.6642  -77.4066  -17.9344 H   0  0  0  0  0  0  0  0  0  0  0  0
   56.8927  -79.6819  -17.3975 H   0  0  0  0  0  0  0  0  0  0  0  0
   56.9289  -80.4768  -15.0672 H   0  0  0  0  0  0  0  0  0  0  0  0
  1  2  1  0  0  0  0
  2  3  2  0  0  0  0
  3  4  1  0  0  0  0
  4  5  2  0  0  0  0
  5  6  1  0  0  0  0
  6  7  2  0  0  0  0
  2  7  1  0  0  0  0
  6  8  1  0  0  0  0
  8  9  1  0  0  0  0
  4 10  1  0  0  0  0
 10 11  1  0  0  0  0
 11 12  2  0  0  0  0
 11 13  1  0  0  0  0
 13 14  1  0  0  0  0
 14 15  2  0  0  0  0
 14 16  2  0  0  0  0
 14 17  1  0  0  0  0
 17 18  2  0  0  0  0
 18 19  1  0  0  0  0
 19 20  2  0  0  0  0
 20 21  1  0  0  0  0
 21 22  2  0  0  0  0
 17 22  1  0  0  0  0
 22 23  1  0  0  0  0
  1 24  1  0  0  0  0
  1 25  1  0  0  0  0
  1 26  1  0  0  0  0
  9 27  1  0  0  0  0
  9 28  1  0  0  0  0
  9 29  1  0  0  0  0
 10 30  1  0  0  0  0
 13 31  1  0  0  0  0
 18 32  1  0  0  0  0
 19 33  1  0  0  0  0
 20 34  1  0  0  0  0
 21 35  1  0  0  0  0
M  END
> <Gold.Version>
2021.2.0

> <Gold.Id.Protein>
5K6Q|5K6Q_protein|mol2

> <Gold.PLP.Fitness>
25.4362

> <Gold.PLP.PLP>
-18.3597

> <Gold.PLP.part.hbond>
-5.0670

> <Gold.PLP.part.metal>
0.0000

> <Gold.PLP.part.buried>
-2.6168

> <Gold.PLP.part.nonpolar>
-12.5739

> <Gold.PLP.part.repulsive>
0.8856

> <Gold.PLP.ligand.clash>
0.0000

> <Gold.PLP.ligand.torsion>
1.9103

> <Gold.PLP.Chemscore.Hbond>
2.5412

> <Gold.PLP.Chemscore.CHOScore>
0.0000

> <Gold.PLP.Chemscore.Metal>
0.0000

> <Gold.Chemscore.Hbonds>
donor molecule, donor type, donor heavy atom, donor atom, acceptor molecule, acceptor atom, score
      L1  H    10    30       P1  2231  0.99
      L1  H    13    31       P1  2231  0.69
      P1  H  2204  6935       L1    16  0.82
      P1  H  4671  9479       L1    15  0.05

> <Gold.PLP.Chemscore.Internal.Correction>
3.2734

> <Gold.Protein.RotatedTorsions>
[ 6459 1704 1703 1701 ] final  -68.15 input   60.01 | X-H torsion
[ 6656 1882 1881 1878 ] final  -56.72 input   60.00 | X-H torsion
[ 7002 2256 2255 2252 ] final  150.27 input   60.00 | X-H torsion
[ 6986 2270 2269 2268 ] final  -27.03 input   59.99 | X-H torsion
[ 9089 4362 4361 4358 ] final -150.86 input   60.01 | X-H torsion
[ 9191 4472 4471 4469 ] final -158.85 input   60.00 | X-H torsion
[ 9201 4474 4473 4471 ] final   -0.85 input   60.00 | X-H torsion
[ 9219 4506 4505 4504 ] final  -27.10 input   60.00 | X-H torsion
[ 9220 4508 4507 4505 ] final  162.11 input   60.00 | X-H torsion
[ 9214 4510 4509 4507 ] final -128.58 input   60.00 | X-H torsion

> <Gold.Protein.ActiveResidues>
 TYR305  THR331  LEU332  MET333  LEU349  GLY350  MET351  HIS352  GLY353  ASN358 
 VAL372  ARG373  PHE374  ASP375  ASP376  ARG377  VAL378  THR379  GLY380  LYS381 
 LEU382  PHE385  ASN404  GLY508  GLY509  TRP574  ILE651  PRO652  SER653  GLY654 
 GLY655  FAD702  HOH839  HOH865  HOH881  HOH913  HOH945  HOH958  HOH960  HOH966 
 HOH968 

> <Gold.Protein.RotatedAtoms>
   60.0696  -72.8207   -3.7716 H   0  0  0  0  0  0  0  0  0  0  0  0  # atno 6459 bound_to 1704
   62.0856  -67.1310   -3.9937 H   0  0  0  0  0  0  0  0  0  0  0  0  # atno 6656 bound_to 1882
   62.5299  -90.6256   -2.4261 H   0  0  0  0  0  0  0  0  0  0  0  0  # atno 6986 bound_to 2270
   63.5543  -89.8645   -1.3684 H   0  0  0  0  0  0  0  0  0  0  0  0  # atno 6987 bound_to 2270
   61.9137  -89.7187   -1.1830 H   0  0  0  0  0  0  0  0  0  0  0  0  # atno 6988 bound_to 2270
   60.5528  -80.7533   -5.4573 H   0  0  0  0  0  0  0  0  0  0  0  0  # atno 7002 bound_to 2256
   68.7370  -81.3280  -12.7517 H   0  0  0  0  0  0  0  0  0  0  0  0  # atno 9089 bound_to 4362
   52.6795  -69.8780   -8.6037 H   0  0  0  0  0  0  0  0  0  0  0  0  # atno 9191 bound_to 4472
   51.4224  -68.6142   -8.5879 H   0  0  0  0  0  0  0  0  0  0  0  0  # atno 9201 bound_to 4474
   62.1960  -71.8747   -7.2561 H   0  0  0  0  0  0  0  0  0  0  0  0  # atno 9214 bound_to 4510
   64.8399  -71.8516  -12.1255 H   0  0  0  0  0  0  0  0  0  0  0  0  # atno 9219 bound_to 4506
   62.1823  -69.4295  -11.0287 H   0  0  0  0  0  0  0  0  0  0  0  0  # atno 9220 bound_to 4508
   59.7166  -74.3303   -3.2771 LP  0  0  0  0  0  0  0  0  0  0  0  0  # atno 9615 bound_to 1704
   61.2461  -73.7688   -3.1675 LP  0  0  0  0  0  0  0  0  0  0  0  0  # atno 9616 bound_to 1704
   61.4713  -68.0340   -5.2001 LP  0  0  0  0  0  0  0  0  0  0  0  0  # atno 9619 bound_to 1882
   62.8535  -67.1946   -5.4271 LP  0  0  0  0  0  0  0  0  0  0  0  0  # atno 9620 bound_to 1882
   62.1582  -80.5796   -5.6587 LP  0  0  0  0  0  0  0  0  0  0  0  0  # atno 9664 bound_to 2256
   61.1521  -79.3352   -5.9844 LP  0  0  0  0  0  0  0  0  0  0  0  0  # atno 9665 bound_to 2256
   70.2290  -81.3807  -12.1042 LP  0  0  0  0  0  0  0  0  0  0  0  0  # atno 9690 bound_to 4362
   68.9675  -80.8502  -11.2133 LP  0  0  0  0  0  0  0  0  0  0  0  0  # atno 9691 bound_to 4362
   52.4033  -69.3464   -7.0907 LP  0  0  0  0  0  0  0  0  0  0  0  0  # atno 9698 bound_to 4472
   53.8138  -70.0840   -7.4553 LP  0  0  0  0  0  0  0  0  0  0  0  0  # atno 9699 bound_to 4472
   50.9810  -67.1445   -9.1291 LP  0  0  0  0  0  0  0  0  0  0  0  0  # atno 9700 bound_to 4474
   50.7551  -67.5422   -7.5615 LP  0  0  0  0  0  0  0  0  0  0  0  0  # atno 9701 bound_to 4474
   63.4492  -72.6123  -11.7576 LP  0  0  0  0  0  0  0  0  0  0  0  0  # atno 9709 bound_to 4506
   64.8815  -73.2745  -11.3371 LP  0  0  0  0  0  0  0  0  0  0  0  0  # atno 9710 bound_to 4506
   63.5467  -69.9934  -11.7131 LP  0  0  0  0  0  0  0  0  0  0  0  0  # atno 9711 bound_to 4508
   63.6223  -69.1115  -10.3408 LP  0  0  0  0  0  0  0  0  0  0  0  0  # atno 9712 bound_to 4508
   63.7847  -71.5234   -7.2779 LP  0  0  0  0  0  0  0  0  0  0  0  0  # atno 9713 bound_to 4510
   63.1478  -72.5087   -8.4137 LP  0  0  0  0  0  0  0  0  0  0  0  0  # atno 9714 bound_to 4510

$$$$
