C12H12ClN5O4S|Chlorsulfuron|mol|1|dock49
  -GOLD-   2292219383D 1   1.00000     0.00000
 
 35 36  0  0  0  0  0  0  0  0  1 V2000
   67.4148  -74.0008  -13.7686 C   0  0  0  0  0  0  0  0  0  0  0  0
   66.4771  -74.9371  -14.4864 C   0  0  0  0  0  0  0  0  0  0  0  0
   65.3449  -75.3041  -13.9125 N   0  0  0  0  0  0  0  0  0  0  0  0
   64.5154  -76.1304  -14.5437 C   0  0  0  0  0  0  0  0  0  0  0  0
   64.8266  -76.5860  -15.7515 N   0  0  0  0  0  0  0  0  0  0  0  0
   65.9646  -76.2150  -16.3246 C   0  0  0  0  0  0  0  0  0  0  0  0
   66.7865  -75.3850  -15.6910 N   0  0  0  0  0  0  0  0  0  0  0  0
   66.2853  -76.6776  -17.5550 O   0  0  0  0  0  0  0  0  0  0  0  0
   66.4323  -75.5349  -18.4005 C   0  0  0  0  0  0  0  0  0  0  0  0
   63.3287  -76.5155  -13.9416 N   0  0  0  0  0  0  0  0  0  0  0  0
   62.1531  -76.0571  -14.4152 C   0  0  0  0  0  0  0  0  0  0  0  0
   62.1340  -75.3057  -15.3707 O   0  0  0  0  0  0  0  0  0  0  0  0
   60.9984  -76.4317  -13.8295 N   0  0  0  0  0  0  0  0  0  0  0  0
   59.5642  -75.7717  -14.3293 S   0  0  0  0  0  0  0  0  0  0  0  0
   58.5462  -76.5558  -13.7227 O   0  0  0  0  0  0  0  0  0  0  0  0
   59.7152  -74.3660  -14.1858 O   0  0  0  0  0  0  0  0  0  0  0  0
   59.4252  -76.0638  -16.0613 C   0  0  0  0  0  0  0  0  0  0  0  0
   60.2851  -76.9482  -16.6843 C   0  0  0  0  0  0  0  0  0  0  0  0
   60.1762  -77.1774  -18.0434 C   0  0  0  0  0  0  0  0  0  0  0  0
   59.2077  -76.5218  -18.7799 C   0  0  0  0  0  0  0  0  0  0  0  0
   58.3472  -75.6365  -18.1581 C   0  0  0  0  0  0  0  0  0  0  0  0
   58.4515  -75.4117  -16.7971 C   0  0  0  0  0  0  0  0  0  0  0  0
   57.3709  -74.3004  -16.0153 Cl  0  0  0  0  0  0  0  0  0  0  0  0
   68.1177  -74.5794  -13.1692 H   0  0  0  0  0  0  0  0  0  0  0  0
   67.9636  -73.4059  -14.4987 H   0  0  0  0  0  0  0  0  0  0  0  0
   66.8413  -73.3399  -13.1186 H   0  0  0  0  0  0  0  0  0  0  0  0
   66.6923  -75.8596  -19.4081 H   0  0  0  0  0  0  0  0  0  0  0  0
   65.4944  -74.9803  -18.4281 H   0  0  0  0  0  0  0  0  0  0  0  0
   67.2224  -74.8934  -18.0103 H   0  0  0  0  0  0  0  0  0  0  0  0
   63.3438  -77.1150  -13.1792 H   0  0  0  0  0  0  0  0  0  0  0  0
   61.0076  -77.0879  -13.1152 H   0  0  0  0  0  0  0  0  0  0  0  0
   61.0426  -77.4603  -16.1094 H   0  0  0  0  0  0  0  0  0  0  0  0
   60.8484  -77.8687  -18.5298 H   0  0  0  0  0  0  0  0  0  0  0  0
   59.1233  -76.7010  -19.8417 H   0  0  0  0  0  0  0  0  0  0  0  0
   57.5910  -75.1237  -18.7338 H   0  0  0  0  0  0  0  0  0  0  0  0
  1  2  1  0  0  0  0
  2  3  2  0  0  0  0
  3  4  1  0  0  0  0
  4  5  2  0  0  0  0
  5  6  1  0  0  0  0
  6  7  2  0  0  0  0
  2  7  1  0  0  0  0
  6  8  1  0  0  0  0
  8  9  1  0  0  0  0
  4 10  1  0  0  0  0
 10 11  1  0  0  0  0
 11 12  2  0  0  0  0
 11 13  1  0  0  0  0
 13 14  1  0  0  0  0
 14 15  2  0  0  0  0
 14 16  2  0  0  0  0
 14 17  1  0  0  0  0
 17 18  2  0  0  0  0
 18 19  1  0  0  0  0
 19 20  2  0  0  0  0
 20 21  1  0  0  0  0
 21 22  2  0  0  0  0
 17 22  1  0  0  0  0
 22 23  1  0  0  0  0
  1 24  1  0  0  0  0
  1 25  1  0  0  0  0
  1 26  1  0  0  0  0
  9 27  1  0  0  0  0
  9 28  1  0  0  0  0
  9 29  1  0  0  0  0
 10 30  1  0  0  0  0
 13 31  1  0  0  0  0
 18 32  1  0  0  0  0
 19 33  1  0  0  0  0
 20 34  1  0  0  0  0
 21 35  1  0  0  0  0
M  END
> <Gold.Version>
2021.2.0

> <Gold.Id.Protein>
5K6Q|5K6Q_protein|mol2

> <Gold.PLP.Fitness>
28.9585

> <Gold.PLP.PLP>
-21.4470

> <Gold.PLP.part.hbond>
-4.7423

> <Gold.PLP.part.metal>
0.0000

> <Gold.PLP.part.buried>
-5.4138

> <Gold.PLP.part.nonpolar>
-13.1759

> <Gold.PLP.part.repulsive>
0.4745

> <Gold.PLP.ligand.clash>
0.0000

> <Gold.PLP.ligand.torsion>
2.4659

> <Gold.PLP.Chemscore.Hbond>
3.0580

> <Gold.PLP.Chemscore.CHOScore>
0.0000

> <Gold.PLP.Chemscore.Metal>
0.0000

> <Gold.Chemscore.Hbonds>
donor molecule, donor type, donor heavy atom, donor atom, acceptor molecule, acceptor atom, score
      L1  H    10    30       P1  2231  0.99
      L1  H    13    31       P1  2231  0.24
      P1  H  2204  6935       L1    16  1.00
      P1  H  4718  9584       L1     8  0.82

> <Gold.PLP.Chemscore.Internal.Correction>
3.2693

> <Gold.Protein.RotatedTorsions>
[ 6459 1704 1703 1701 ] final -161.03 input   60.01 | X-H torsion
[ 6656 1882 1881 1878 ] final  -48.85 input   60.00 | X-H torsion
[ 7002 2256 2255 2252 ] final  113.62 input   60.00 | X-H torsion
[ 6986 2270 2269 2268 ] final  -28.54 input   59.99 | X-H torsion
[ 9089 4362 4361 4358 ] final -131.09 input   60.01 | X-H torsion
[ 9191 4472 4471 4469 ] final  -96.07 input   60.00 | X-H torsion
[ 9201 4474 4473 4471 ] final -137.72 input   60.00 | X-H torsion
[ 9219 4506 4505 4504 ] final -108.46 input   60.00 | X-H torsion
[ 9220 4508 4507 4505 ] final -151.82 input   60.00 | X-H torsion
[ 9214 4510 4509 4507 ] final   33.64 input   60.00 | X-H torsion

> <Gold.Protein.ActiveResidues>
 TYR305  THR331  LEU332  MET333  LEU349  GLY350  MET351  HIS352  GLY353  ASN358 
 VAL372  ARG373  PHE374  ASP375  ASP376  ARG377  VAL378  THR379  GLY380  LYS381 
 LEU382  PHE385  ASN404  GLY508  GLY509  TRP574  ILE651  PRO652  SER653  GLY654 
 GLY655  FAD702  HOH839  HOH865  HOH881  HOH913  HOH945  HOH958  HOH960  HOH966 
 HOH968 

> <Gold.Protein.RotatedAtoms>
   59.4812  -74.0000   -3.4492 H   0  0  0  0  0  0  0  0  0  0  0  0  # atno 6459 bound_to 1704
   62.1946  -67.0682   -4.0198 H   0  0  0  0  0  0  0  0  0  0  0  0  # atno 6656 bound_to 1882
   62.5049  -90.6232   -2.4230 H   0  0  0  0  0  0  0  0  0  0  0  0  # atno 6986 bound_to 2270
   63.5634  -89.8784   -1.3874 H   0  0  0  0  0  0  0  0  0  0  0  0  # atno 6987 bound_to 2270
   61.9295  -89.7072   -1.1670 H   0  0  0  0  0  0  0  0  0  0  0  0  # atno 6988 bound_to 2270
   61.0421  -81.0744   -5.3934 H   0  0  0  0  0  0  0  0  0  0  0  0  # atno 7002 bound_to 2256
   68.5261  -81.2169  -12.5360 H   0  0  0  0  0  0  0  0  0  0  0  0  # atno 9089 bound_to 4362
   53.5538  -70.1946   -8.3095 H   0  0  0  0  0  0  0  0  0  0  0  0  # atno 9191 bound_to 4472
   50.8756  -66.9953   -8.9226 H   0  0  0  0  0  0  0  0  0  0  0  0  # atno 9201 bound_to 4474
   63.7333  -72.2283   -8.2225 H   0  0  0  0  0  0  0  0  0  0  0  0  # atno 9214 bound_to 4510
   63.6468  -72.0927  -12.0359 H   0  0  0  0  0  0  0  0  0  0  0  0  # atno 9219 bound_to 4506
   62.4990  -69.0908  -10.4615 H   0  0  0  0  0  0  0  0  0  0  0  0  # atno 9220 bound_to 4508
   61.0544  -74.1531   -3.0625 LP  0  0  0  0  0  0  0  0  0  0  0  0  # atno 9615 bound_to 1704
   60.5010  -72.7584   -3.7068 LP  0  0  0  0  0  0  0  0  0  0  0  0  # atno 9616 bound_to 1704
   61.4167  -68.0231   -5.0833 LP  0  0  0  0  0  0  0  0  0  0  0  0  # atno 9619 bound_to 1882
   62.7984  -67.2688   -5.5176 LP  0  0  0  0  0  0  0  0  0  0  0  0  # atno 9620 bound_to 1882
   62.1941  -80.0190   -5.8484 LP  0  0  0  0  0  0  0  0  0  0  0  0  # atno 9664 bound_to 2256
   60.6234  -79.5724   -5.8590 LP  0  0  0  0  0  0  0  0  0  0  0  0  # atno 9665 bound_to 2256
   70.1291  -81.4623  -12.4012 LP  0  0  0  0  0  0  0  0  0  0  0  0  # atno 9690 bound_to 4362
   69.2798  -80.8805  -11.1335 LP  0  0  0  0  0  0  0  0  0  0  0  0  # atno 9691 bound_to 4362
   52.1239  -69.4721   -8.0239 LP  0  0  0  0  0  0  0  0  0  0  0  0  # atno 9698 bound_to 4472
   53.2126  -69.6395   -6.8184 LP  0  0  0  0  0  0  0  0  0  0  0  0  # atno 9699 bound_to 4472
   50.8420  -67.7994   -7.5083 LP  0  0  0  0  0  0  0  0  0  0  0  0  # atno 9700 bound_to 4474
   51.4448  -68.5178   -8.8452 LP  0  0  0  0  0  0  0  0  0  0  0  0  # atno 9701 bound_to 4474
   64.2717  -73.3978  -11.2913 LP  0  0  0  0  0  0  0  0  0  0  0  0  # atno 9709 bound_to 4506
   65.2606  -72.2462  -11.8935 LP  0  0  0  0  0  0  0  0  0  0  0  0  # atno 9710 bound_to 4506
   62.8131  -69.9767  -11.7899 LP  0  0  0  0  0  0  0  0  0  0  0  0  # atno 9711 bound_to 4508
   64.0369  -69.4693  -10.8352 LP  0  0  0  0  0  0  0  0  0  0  0  0  # atno 9712 bound_to 4508
   62.1640  -72.2825   -7.7953 LP  0  0  0  0  0  0  0  0  0  0  0  0  # atno 9713 bound_to 4510
   63.2203  -71.3936   -6.9231 LP  0  0  0  0  0  0  0  0  0  0  0  0  # atno 9714 bound_to 4510

$$$$
