C12H12ClN5O4S|Chlorsulfuron|mol|1|dock7
  -GOLD-   2292219383D 1   1.00000     0.00000
 
 35 36  0  0  0  0  0  0  0  0  1 V2000
   67.5390  -73.9997  -13.8406 C   0  0  0  0  0  0  0  0  0  0  0  0
   66.5780  -74.9237  -14.5435 C   0  0  0  0  0  0  0  0  0  0  0  0
   65.4507  -75.2767  -13.9516 N   0  0  0  0  0  0  0  0  0  0  0  0
   64.6007  -76.0921  -14.5696 C   0  0  0  0  0  0  0  0  0  0  0  0
   64.8867  -76.5509  -15.7824 N   0  0  0  0  0  0  0  0  0  0  0  0
   66.0198  -76.1941  -16.3736 C   0  0  0  0  0  0  0  0  0  0  0  0
   66.8623  -75.3749  -15.7531 N   0  0  0  0  0  0  0  0  0  0  0  0
   66.3148  -76.6601  -17.6092 O   0  0  0  0  0  0  0  0  0  0  0  0
   66.4782  -75.5186  -18.4530 C   0  0  0  0  0  0  0  0  0  0  0  0
   63.4191  -76.4624  -13.9486 N   0  0  0  0  0  0  0  0  0  0  0  0
   62.2377  -76.0414  -14.4422 C   0  0  0  0  0  0  0  0  0  0  0  0
   62.2091  -75.3367  -15.4323 O   0  0  0  0  0  0  0  0  0  0  0  0
   61.0880  -76.4016  -13.8380 N   0  0  0  0  0  0  0  0  0  0  0  0
   59.6456  -75.7837  -14.3672 S   0  0  0  0  0  0  0  0  0  0  0  0
   58.6396  -76.6114  -13.7998 O   0  0  0  0  0  0  0  0  0  0  0  0
   59.7439  -74.3760  -14.1995 O   0  0  0  0  0  0  0  0  0  0  0  0
   59.5632  -76.0538  -16.1064 C   0  0  0  0  0  0  0  0  0  0  0  0
   59.0737  -75.0639  -16.9371 C   0  0  0  0  0  0  0  0  0  0  0  0
   59.0088  -75.2757  -18.3018 C   0  0  0  0  0  0  0  0  0  0  0  0
   59.4331  -76.4779  -18.8361 C   0  0  0  0  0  0  0  0  0  0  0  0
   59.9225  -77.4691  -18.0061 C   0  0  0  0  0  0  0  0  0  0  0  0
   59.9937  -77.2552  -16.6412 C   0  0  0  0  0  0  0  0  0  0  0  0
   60.6088  -78.4993  -15.5983 Cl  0  0  0  0  0  0  0  0  0  0  0  0
   68.2441  -74.5875  -13.2529 H   0  0  0  0  0  0  0  0  0  0  0  0
   68.0834  -73.4115  -14.5793 H   0  0  0  0  0  0  0  0  0  0  0  0
   66.9844  -73.3319  -13.1813 H   0  0  0  0  0  0  0  0  0  0  0  0
   66.7183  -75.8459  -19.4646 H   0  0  0  0  0  0  0  0  0  0  0  0
   65.5532  -74.9422  -18.4676 H   0  0  0  0  0  0  0  0  0  0  0  0
   67.2877  -74.8968  -18.0706 H   0  0  0  0  0  0  0  0  0  0  0  0
   63.4419  -77.0247  -13.1585 H   0  0  0  0  0  0  0  0  0  0  0  0
   61.1055  -77.0229  -13.0933 H   0  0  0  0  0  0  0  0  0  0  0  0
   58.7414  -74.1246  -16.5202 H   0  0  0  0  0  0  0  0  0  0  0  0
   58.6262  -74.5018  -18.9507 H   0  0  0  0  0  0  0  0  0  0  0  0
   59.3819  -76.6429  -19.9022 H   0  0  0  0  0  0  0  0  0  0  0  0
   60.2532  -78.4086  -18.4235 H   0  0  0  0  0  0  0  0  0  0  0  0
  1  2  1  0  0  0  0
  2  3  2  0  0  0  0
  3  4  1  0  0  0  0
  4  5  2  0  0  0  0
  5  6  1  0  0  0  0
  6  7  2  0  0  0  0
  2  7  1  0  0  0  0
  6  8  1  0  0  0  0
  8  9  1  0  0  0  0
  4 10  1  0  0  0  0
 10 11  1  0  0  0  0
 11 12  2  0  0  0  0
 11 13  1  0  0  0  0
 13 14  1  0  0  0  0
 14 15  2  0  0  0  0
 14 16  2  0  0  0  0
 14 17  1  0  0  0  0
 17 18  2  0  0  0  0
 18 19  1  0  0  0  0
 19 20  2  0  0  0  0
 20 21  1  0  0  0  0
 21 22  2  0  0  0  0
 17 22  1  0  0  0  0
 22 23  1  0  0  0  0
  1 24  1  0  0  0  0
  1 25  1  0  0  0  0
  1 26  1  0  0  0  0
  9 27  1  0  0  0  0
  9 28  1  0  0  0  0
  9 29  1  0  0  0  0
 10 30  1  0  0  0  0
 13 31  1  0  0  0  0
 18 32  1  0  0  0  0
 19 33  1  0  0  0  0
 20 34  1  0  0  0  0
 21 35  1  0  0  0  0
M  END
> <Gold.Version>
2021.2.0

> <Gold.Id.Protein>
5K6Q|5K6Q_protein|mol2

> <Gold.PLP.Fitness>
28.6332

> <Gold.PLP.PLP>
-20.7551

> <Gold.PLP.part.hbond>
-4.8094

> <Gold.PLP.part.metal>
0.0000

> <Gold.PLP.part.buried>
-5.3298

> <Gold.PLP.part.nonpolar>
-12.3909

> <Gold.PLP.part.repulsive>
0.4599

> <Gold.PLP.ligand.clash>
0.0000

> <Gold.PLP.ligand.torsion>
2.3297

> <Gold.PLP.Chemscore.Hbond>
3.0881

> <Gold.PLP.Chemscore.CHOScore>
0.0000

> <Gold.PLP.Chemscore.Metal>
0.0000

> <Gold.Chemscore.Hbonds>
donor molecule, donor type, donor heavy atom, donor atom, acceptor molecule, acceptor atom, score
      L1  H    10    30       P1  2231  0.84
      L1  H    13    31       P1  2231  0.38
      P1  H  2204  6935       L1    16  1.00
      P1  H  4718  9584       L1     8  0.86

> <Gold.PLP.Chemscore.Internal.Correction>
3.2734

> <Gold.Protein.RotatedTorsions>
[ 6459 1704 1703 1701 ] final -178.39 input   60.01 | X-H torsion
[ 6656 1882 1881 1878 ] final  -45.78 input   60.00 | X-H torsion
[ 7002 2256 2255 2252 ] final -144.52 input   60.00 | X-H torsion
[ 6986 2270 2269 2268 ] final  -17.39 input   59.99 | X-H torsion
[ 9089 4362 4361 4358 ] final  156.84 input   60.01 | X-H torsion
[ 9191 4472 4471 4469 ] final  155.24 input   60.00 | X-H torsion
[ 9201 4474 4473 4471 ] final  -46.42 input   60.00 | X-H torsion
[ 9219 4506 4505 4504 ] final  102.95 input   60.00 | X-H torsion
[ 9220 4508 4507 4505 ] final -140.25 input   60.00 | X-H torsion
[ 9214 4510 4509 4507 ] final  177.94 input   60.00 | X-H torsion

> <Gold.Protein.ActiveResidues>
 TYR305  THR331  LEU332  MET333  LEU349  GLY350  MET351  HIS352  GLY353  ASN358 
 VAL372  ARG373  PHE374  ASP375  ASP376  ARG377  VAL378  THR379  GLY380  LYS381 
 LEU382  PHE385  ASN404  GLY508  GLY509  TRP574  ILE651  PRO652  SER653  GLY654 
 GLY655  FAD702  HOH839  HOH865  HOH881  HOH913  HOH945  HOH958  HOH960  HOH966 
 HOH968 

> <Gold.Protein.RotatedAtoms>
   59.6151  -74.2221   -3.3369 H   0  0  0  0  0  0  0  0  0  0  0  0  # atno 6459 bound_to 1704
   62.2369  -67.0456   -4.0343 H   0  0  0  0  0  0  0  0  0  0  0  0  # atno 6656 bound_to 1882
   62.6903  -90.6319   -2.4332 H   0  0  0  0  0  0  0  0  0  0  0  0  # atno 6986 bound_to 2270
   63.4822  -89.7798   -1.2524 H   0  0  0  0  0  0  0  0  0  0  0  0  # atno 6987 bound_to 2270
   61.8253  -89.7972   -1.2919 H   0  0  0  0  0  0  0  0  0  0  0  0  # atno 6988 bound_to 2270
   60.4550  -79.7980   -5.7666 H   0  0  0  0  0  0  0  0  0  0  0  0  # atno 7002 bound_to 2256
   69.5317  -81.5144  -12.8733 H   0  0  0  0  0  0  0  0  0  0  0  0  # atno 9089 bound_to 4362
   52.1857  -69.5410   -8.1846 H   0  0  0  0  0  0  0  0  0  0  0  0  # atno 9191 bound_to 4472
   51.4047  -68.1977   -9.1812 H   0  0  0  0  0  0  0  0  0  0  0  0  # atno 9201 bound_to 4474
   62.8314  -71.4583   -6.8919 H   0  0  0  0  0  0  0  0  0  0  0  0  # atno 9214 bound_to 4510
   64.7310  -73.3344  -11.3067 H   0  0  0  0  0  0  0  0  0  0  0  0  # atno 9219 bound_to 4506
   62.6524  -69.0410  -10.3632 H   0  0  0  0  0  0  0  0  0  0  0  0  # atno 9220 bound_to 4508
   61.1987  -73.9151   -3.1222 LP  0  0  0  0  0  0  0  0  0  0  0  0  # atno 9615 bound_to 1704
   60.2217  -72.7727   -3.7602 LP  0  0  0  0  0  0  0  0  0  0  0  0  # atno 9616 bound_to 1704
   61.3991  -68.0160   -5.0366 LP  0  0  0  0  0  0  0  0  0  0  0  0  # atno 9619 bound_to 1882
   62.7734  -67.2987   -5.5497 LP  0  0  0  0  0  0  0  0  0  0  0  0  # atno 9620 bound_to 1882
   61.3347  -81.1188   -5.4068 LP  0  0  0  0  0  0  0  0  0  0  0  0  # atno 9664 bound_to 2256
   62.0741  -79.7580   -5.9247 LP  0  0  0  0  0  0  0  0  0  0  0  0  # atno 9665 bound_to 2256
   69.9789  -81.0873  -11.3680 LP  0  0  0  0  0  0  0  0  0  0  0  0  # atno 9690 bound_to 4362
   68.4173  -80.9560  -11.8271 LP  0  0  0  0  0  0  0  0  0  0  0  0  # atno 9691 bound_to 4362
   53.0455  -69.5596   -6.8031 LP  0  0  0  0  0  0  0  0  0  0  0  0  # atno 9698 bound_to 4472
   53.6688  -70.2102   -8.1650 LP  0  0  0  0  0  0  0  0  0  0  0  0  # atno 9699 bound_to 4472
   50.7273  -66.8871   -8.4945 LP  0  0  0  0  0  0  0  0  0  0  0  0  # atno 9700 bound_to 4474
   51.0266  -68.2191   -7.5986 LP  0  0  0  0  0  0  0  0  0  0  0  0  # atno 9701 bound_to 4474
   64.9806  -71.9255  -12.0819 LP  0  0  0  0  0  0  0  0  0  0  0  0  # atno 9709 bound_to 4506
   63.4599  -72.4680  -11.8373 LP  0  0  0  0  0  0  0  0  0  0  0  0  # atno 9710 bound_to 4506
   62.6406  -69.9228  -11.7308 LP  0  0  0  0  0  0  0  0  0  0  0  0  # atno 9711 bound_to 4508
   64.0551  -69.5734  -10.9934 LP  0  0  0  0  0  0  0  0  0  0  0  0  # atno 9712 bound_to 4508
   63.9278  -71.9976   -7.9668 LP  0  0  0  0  0  0  0  0  0  0  0  0  # atno 9713 bound_to 4510
   62.3648  -72.4539   -8.0916 LP  0  0  0  0  0  0  0  0  0  0  0  0  # atno 9714 bound_to 4510

$$$$
