C12H12ClN5O4S|Chlorsulfuron|mol|1|dock42
  -GOLD-   2292219383D 1   1.00000     0.00000
 
 35 36  0  0  0  0  0  0  0  0  1 V2000
   63.4931  -74.6005  -18.0992 C   0  0  0  0  0  0  0  0  0  0  0  0
   62.6417  -75.2367  -17.0307 C   0  0  0  0  0  0  0  0  0  0  0  0
   63.1340  -76.2145  -16.2909 N   0  0  0  0  0  0  0  0  0  0  0  0
   62.3848  -76.7778  -15.3472 C   0  0  0  0  0  0  0  0  0  0  0  0
   61.1413  -76.3561  -15.1495 N   0  0  0  0  0  0  0  0  0  0  0  0
   60.6505  -75.3738  -15.8945 C   0  0  0  0  0  0  0  0  0  0  0  0
   61.4059  -74.8115  -16.8321 N   0  0  0  0  0  0  0  0  0  0  0  0
   59.3836  -74.9418  -15.6963 O   0  0  0  0  0  0  0  0  0  0  0  0
   59.4668  -73.5521  -15.3739 C   0  0  0  0  0  0  0  0  0  0  0  0
   62.9010  -77.8034  -14.5719 N   0  0  0  0  0  0  0  0  0  0  0  0
   63.6081  -78.7946  -15.1498 C   0  0  0  0  0  0  0  0  0  0  0  0
   63.7928  -78.7888  -16.3513 O   0  0  0  0  0  0  0  0  0  0  0  0
   64.1103  -79.7924  -14.3957 N   0  0  0  0  0  0  0  0  0  0  0  0
   64.8698  -81.0745  -15.1179 S   0  0  0  0  0  0  0  0  0  0  0  0
   66.0655  -80.5494  -15.6780 O   0  0  0  0  0  0  0  0  0  0  0  0
   64.7993  -82.1419  -14.1826 O   0  0  0  0  0  0  0  0  0  0  0  0
   63.8780  -81.5713  -16.4869 C   0  0  0  0  0  0  0  0  0  0  0  0
   64.4544  -81.7467  -17.7305 C   0  0  0  0  0  0  0  0  0  0  0  0
   63.6763  -82.1364  -18.8048 C   0  0  0  0  0  0  0  0  0  0  0  0
   62.3213  -82.3504  -18.6357 C   0  0  0  0  0  0  0  0  0  0  0  0
   61.7433  -82.1749  -17.3923 C   0  0  0  0  0  0  0  0  0  0  0  0
   62.5226  -81.7913  -16.3156 C   0  0  0  0  0  0  0  0  0  0  0  0
   61.7976  -81.5712  -14.7537 Cl  0  0  0  0  0  0  0  0  0  0  0  0
   63.3565  -75.1354  -19.0390 H   0  0  0  0  0  0  0  0  0  0  0  0
   63.1973  -73.5593  -18.2274 H   0  0  0  0  0  0  0  0  0  0  0  0
   64.5413  -74.6468  -17.8039 H   0  0  0  0  0  0  0  0  0  0  0  0
   58.4648  -73.1578  -15.2047 H   0  0  0  0  0  0  0  0  0  0  0  0
   60.0650  -73.4236  -14.4718 H   0  0  0  0  0  0  0  0  0  0  0  0
   59.9341  -73.0150  -16.1993 H   0  0  0  0  0  0  0  0  0  0  0  0
   62.7536  -77.8080  -13.6132 H   0  0  0  0  0  0  0  0  0  0  0  0
   64.0269  -79.7594  -13.4299 H   0  0  0  0  0  0  0  0  0  0  0  0
   65.5131  -81.5789  -17.8633 H   0  0  0  0  0  0  0  0  0  0  0  0
   64.1272  -82.2733  -19.7765 H   0  0  0  0  0  0  0  0  0  0  0  0
   61.7138  -82.6546  -19.4753 H   0  0  0  0  0  0  0  0  0  0  0  0
   60.6844  -82.3414  -17.2605 H   0  0  0  0  0  0  0  0  0  0  0  0
  1  2  1  0  0  0  0
  2  3  2  0  0  0  0
  3  4  1  0  0  0  0
  4  5  2  0  0  0  0
  5  6  1  0  0  0  0
  6  7  2  0  0  0  0
  2  7  1  0  0  0  0
  6  8  1  0  0  0  0
  8  9  1  0  0  0  0
  4 10  1  0  0  0  0
 10 11  1  0  0  0  0
 11 12  2  0  0  0  0
 11 13  1  0  0  0  0
 13 14  1  0  0  0  0
 14 15  2  0  0  0  0
 14 16  2  0  0  0  0
 14 17  1  0  0  0  0
 17 18  2  0  0  0  0
 18 19  1  0  0  0  0
 19 20  2  0  0  0  0
 20 21  1  0  0  0  0
 21 22  2  0  0  0  0
 17 22  1  0  0  0  0
 22 23  1  0  0  0  0
  1 24  1  0  0  0  0
  1 25  1  0  0  0  0
  1 26  1  0  0  0  0
  9 27  1  0  0  0  0
  9 28  1  0  0  0  0
  9 29  1  0  0  0  0
 10 30  1  0  0  0  0
 13 31  1  0  0  0  0
 18 32  1  0  0  0  0
 19 33  1  0  0  0  0
 20 34  1  0  0  0  0
 21 35  1  0  0  0  0
M  END
> <Gold.Version>
2021.2.0

> <Gold.Id.Protein>
5K6Q|5K6Q_protein|mol2

> <Gold.PLP.Fitness>
19.8473

> <Gold.PLP.PLP>
-14.0765

> <Gold.PLP.part.hbond>
-6.2216

> <Gold.PLP.part.metal>
0.0000

> <Gold.PLP.part.buried>
-1.9150

> <Gold.PLP.part.nonpolar>
-8.1805

> <Gold.PLP.part.repulsive>
0.5459

> <Gold.PLP.ligand.clash>
0.0000

> <Gold.PLP.ligand.torsion>
2.0239

> <Gold.PLP.Chemscore.Hbond>
2.1831

> <Gold.PLP.Chemscore.CHOScore>
0.0000

> <Gold.PLP.Chemscore.Metal>
0.0000

> <Gold.Chemscore.Hbonds>
donor molecule, donor type, donor heavy atom, donor atom, acceptor molecule, acceptor atom, score
      L1  H    10    30       P1  2231  0.73
      L1  H    13    31       P1  2232  0.84
      P1  H  2243  6968       L1    15  0.35
      P1  H  4726  9604       L1    16  0.26

> <Gold.PLP.Chemscore.Internal.Correction>
3.2693

> <Gold.Protein.RotatedTorsions>
[ 6459 1704 1703 1701 ] final   34.37 input   60.01 | X-H torsion
[ 6656 1882 1881 1878 ] final   97.52 input   60.00 | X-H torsion
[ 7002 2256 2255 2252 ] final   -9.67 input   60.00 | X-H torsion
[ 6986 2270 2269 2268 ] final  -73.25 input   59.99 | X-H torsion
[ 9089 4362 4361 4358 ] final -173.91 input   60.01 | X-H torsion
[ 9191 4472 4471 4469 ] final -149.90 input   60.00 | X-H torsion
[ 9201 4474 4473 4471 ] final   90.50 input   60.00 | X-H torsion
[ 9219 4506 4505 4504 ] final  152.44 input   60.00 | X-H torsion
[ 9220 4508 4507 4505 ] final  -84.17 input   60.00 | X-H torsion
[ 9214 4510 4509 4507 ] final  -56.01 input   60.00 | X-H torsion

> <Gold.Protein.ActiveResidues>
 TYR305  THR331  LEU332  MET333  LEU349  GLY350  MET351  HIS352  GLY353  ASN358 
 VAL372  ARG373  PHE374  ASP375  ASP376  ARG377  VAL378  THR379  GLY380  LYS381 
 LEU382  PHE385  ASN404  GLY508  GLY509  TRP574  ILE651  PRO652  SER653  GLY654 
 GLY655  FAD702  HOH839  HOH865  HOH881  HOH913  HOH945  HOH958  HOH960  HOH966 
 HOH968 

> <Gold.Protein.RotatedAtoms>
   61.2585  -73.5002   -3.2640 H   0  0  0  0  0  0  0  0  0  0  0  0  # atno 6459 bound_to 1704
   62.5288  -67.5352   -5.7178 H   0  0  0  0  0  0  0  0  0  0  0  0  # atno 6656 bound_to 1882
   61.8879  -90.3935   -2.1124 H   0  0  0  0  0  0  0  0  0  0  0  0  # atno 6986 bound_to 2270
   63.5375  -90.3058   -1.9761 H   0  0  0  0  0  0  0  0  0  0  0  0  # atno 6987 bound_to 2270
   62.5726  -89.5094   -0.8888 H   0  0  0  0  0  0  0  0  0  0  0  0  # atno 6988 bound_to 2270
   62.1727  -79.9704   -5.8603 H   0  0  0  0  0  0  0  0  0  0  0  0  # atno 7002 bound_to 2256
   69.0660  -81.4360  -12.8936 H   0  0  0  0  0  0  0  0  0  0  0  0  # atno 9089 bound_to 4362
   52.8088  -69.9425   -8.6255 H   0  0  0  0  0  0  0  0  0  0  0  0  # atno 9191 bound_to 4472
   50.9170  -67.9765   -7.5239 H   0  0  0  0  0  0  0  0  0  0  0  0  # atno 9201 bound_to 4474
   62.4391  -72.4787   -8.1528 H   0  0  0  0  0  0  0  0  0  0  0  0  # atno 9214 bound_to 4510
   63.9491  -73.3055  -11.3518 H   0  0  0  0  0  0  0  0  0  0  0  0  # atno 9219 bound_to 4506
   63.5297  -69.0832  -10.3056 H   0  0  0  0  0  0  0  0  0  0  0  0  # atno 9220 bound_to 4508
   59.8155  -72.9511   -3.7782 LP  0  0  0  0  0  0  0  0  0  0  0  0  # atno 9615 bound_to 1704
   59.9499  -74.4636   -3.1775 LP  0  0  0  0  0  0  0  0  0  0  0  0  # atno 9616 bound_to 1704
   62.5421  -66.9106   -4.2152 LP  0  0  0  0  0  0  0  0  0  0  0  0  # atno 9619 bound_to 1882
   61.3365  -67.9111   -4.6759 LP  0  0  0  0  0  0  0  0  0  0  0  0  # atno 9620 bound_to 1882
   60.5862  -79.6087   -5.8436 LP  0  0  0  0  0  0  0  0  0  0  0  0  # atno 9664 bound_to 2256
   61.0926  -81.0945   -5.3936 LP  0  0  0  0  0  0  0  0  0  0  0  0  # atno 9665 bound_to 2256
   70.2085  -81.2574  -11.7487 LP  0  0  0  0  0  0  0  0  0  0  0  0  # atno 9690 bound_to 4362
   68.6567  -80.8648  -11.4258 LP  0  0  0  0  0  0  0  0  0  0  0  0  # atno 9691 bound_to 4362
   52.3079  -69.3333   -7.2021 LP  0  0  0  0  0  0  0  0  0  0  0  0  # atno 9698 bound_to 4472
   53.7789  -70.0322   -7.3220 LP  0  0  0  0  0  0  0  0  0  0  0  0  # atno 9699 bound_to 4472
   51.4401  -68.4067   -9.0036 LP  0  0  0  0  0  0  0  0  0  0  0  0  # atno 9700 bound_to 4474
   50.8050  -66.9223   -8.7585 LP  0  0  0  0  0  0  0  0  0  0  0  0  # atno 9701 bound_to 4474
   65.3331  -72.5373  -11.7294 LP  0  0  0  0  0  0  0  0  0  0  0  0  # atno 9709 bound_to 4506
   63.8947  -71.8853  -12.1444 LP  0  0  0  0  0  0  0  0  0  0  0  0  # atno 9710 bound_to 4506
   62.1768  -69.4830  -11.1166 LP  0  0  0  0  0  0  0  0  0  0  0  0  # atno 9711 bound_to 4508
   63.6354  -69.9706  -11.6655 LP  0  0  0  0  0  0  0  0  0  0  0  0  # atno 9712 bound_to 4508
   62.7365  -71.4872   -6.8971 LP  0  0  0  0  0  0  0  0  0  0  0  0  # atno 9713 bound_to 4510
   63.9512  -71.9368   -7.8916 LP  0  0  0  0  0  0  0  0  0  0  0  0  # atno 9714 bound_to 4510

$$$$
