C12H12ClN5O4S|Chlorsulfuron|mol|1|dock22
  -GOLD-   2292219383D 1   1.00000     0.00000
 
 35 36  0  0  0  0  0  0  0  0  1 V2000
   67.8049  -72.3985  -16.8767 C   0  0  0  0  0  0  0  0  0  0  0  0
   67.5048  -73.4072  -15.7979 C   0  0  0  0  0  0  0  0  0  0  0  0
   66.2821  -73.5024  -15.3063 N   0  0  0  0  0  0  0  0  0  0  0  0
   66.0144  -74.3918  -14.3541 C   0  0  0  0  0  0  0  0  0  0  0  0
   66.9777  -75.1838  -13.8982 N   0  0  0  0  0  0  0  0  0  0  0  0
   68.2044  -75.0851  -14.3945 C   0  0  0  0  0  0  0  0  0  0  0  0
   68.4642  -74.1983  -15.3494 N   0  0  0  0  0  0  0  0  0  0  0  0
   69.1887  -75.8902  -13.9320 O   0  0  0  0  0  0  0  0  0  0  0  0
   70.4223  -75.2039  -14.1542 C   0  0  0  0  0  0  0  0  0  0  0  0
   64.7324  -74.4912  -13.8384 N   0  0  0  0  0  0  0  0  0  0  0  0
   63.8758  -75.4059  -14.3342 C   0  0  0  0  0  0  0  0  0  0  0  0
   64.2279  -76.1437  -15.2339 O   0  0  0  0  0  0  0  0  0  0  0  0
   62.6285  -75.5026  -13.8326 N   0  0  0  0  0  0  0  0  0  0  0  0
   61.5361  -76.5377  -14.5237 S   0  0  0  0  0  0  0  0  0  0  0  0
   62.2408  -77.7516  -14.7447 O   0  0  0  0  0  0  0  0  0  0  0  0
   60.3438  -76.4057  -13.7618 O   0  0  0  0  0  0  0  0  0  0  0  0
   61.1534  -75.9080  -16.1242 C   0  0  0  0  0  0  0  0  0  0  0  0
   61.4904  -76.6335  -17.2510 C   0  0  0  0  0  0  0  0  0  0  0  0
   61.1904  -76.1396  -18.5070 C   0  0  0  0  0  0  0  0  0  0  0  0
   60.5536  -74.9196  -18.6364 C   0  0  0  0  0  0  0  0  0  0  0  0
   60.2164  -74.1927  -17.5100 C   0  0  0  0  0  0  0  0  0  0  0  0
   60.5106  -74.6895  -16.2529 C   0  0  0  0  0  0  0  0  0  0  0  0
   60.0869  -73.7774  -14.8379 Cl  0  0  0  0  0  0  0  0  0  0  0  0
   68.1113  -71.4577  -16.4195 H   0  0  0  0  0  0  0  0  0  0  0  0
   68.6085  -72.7730  -17.5108 H   0  0  0  0  0  0  0  0  0  0  0  0
   66.9119  -72.2353  -17.4801 H   0  0  0  0  0  0  0  0  0  0  0  0
   71.2490  -75.8171  -13.7955 H   0  0  0  0  0  0  0  0  0  0  0  0
   70.5460  -75.0149  -15.2206 H   0  0  0  0  0  0  0  0  0  0  0  0
   70.4128  -74.2560  -13.6161 H   0  0  0  0  0  0  0  0  0  0  0  0
   64.4514  -73.9024  -13.1206 H   0  0  0  0  0  0  0  0  0  0  0  0
   62.3709  -74.9660  -13.0668 H   0  0  0  0  0  0  0  0  0  0  0  0
   61.9886  -77.5866  -17.1505 H   0  0  0  0  0  0  0  0  0  0  0  0
   61.4539  -76.7069  -19.3874 H   0  0  0  0  0  0  0  0  0  0  0  0
   60.3197  -74.5341  -19.6178 H   0  0  0  0  0  0  0  0  0  0  0  0
   59.7196  -73.2391  -17.6113 H   0  0  0  0  0  0  0  0  0  0  0  0
  1  2  1  0  0  0  0
  2  3  2  0  0  0  0
  3  4  1  0  0  0  0
  4  5  2  0  0  0  0
  5  6  1  0  0  0  0
  6  7  2  0  0  0  0
  2  7  1  0  0  0  0
  6  8  1  0  0  0  0
  8  9  1  0  0  0  0
  4 10  1  0  0  0  0
 10 11  1  0  0  0  0
 11 12  2  0  0  0  0
 11 13  1  0  0  0  0
 13 14  1  0  0  0  0
 14 15  2  0  0  0  0
 14 16  2  0  0  0  0
 14 17  1  0  0  0  0
 17 18  2  0  0  0  0
 18 19  1  0  0  0  0
 19 20  2  0  0  0  0
 20 21  1  0  0  0  0
 21 22  2  0  0  0  0
 17 22  1  0  0  0  0
 22 23  1  0  0  0  0
  1 24  1  0  0  0  0
  1 25  1  0  0  0  0
  1 26  1  0  0  0  0
  9 27  1  0  0  0  0
  9 28  1  0  0  0  0
  9 29  1  0  0  0  0
 10 30  1  0  0  0  0
 13 31  1  0  0  0  0
 18 32  1  0  0  0  0
 19 33  1  0  0  0  0
 20 34  1  0  0  0  0
 21 35  1  0  0  0  0
M  END
> <Gold.Version>
2021.2.0

> <Gold.Id.Protein>
5K6Q|5K6Q_protein|mol2

> <Gold.PLP.Fitness>
32.0853

> <Gold.PLP.PLP>
-30.3126

> <Gold.PLP.part.hbond>
-3.3068

> <Gold.PLP.part.metal>
0.0000

> <Gold.PLP.part.buried>
-7.0449

> <Gold.PLP.part.nonpolar>
-21.8994

> <Gold.PLP.part.repulsive>
1.5827

> <Gold.PLP.ligand.clash>
0.0000

> <Gold.PLP.ligand.torsion>
2.6362

> <Gold.PLP.Chemscore.Hbond>
1.2572

> <Gold.PLP.Chemscore.CHOScore>
0.0000

> <Gold.PLP.Chemscore.Metal>
0.0000

> <Gold.Chemscore.Hbonds>
donor molecule, donor type, donor heavy atom, donor atom, acceptor molecule, acceptor atom, score
      L1  H    10    30       P1  4506  0.10
      L1  H    13    31       P1  2223  0.16
      P1  H  2240  6967       L1     8  1.00

> <Gold.PLP.Chemscore.Internal.Correction>
3.2734

> <Gold.Protein.RotatedTorsions>
[ 6459 1704 1703 1701 ] final  -92.57 input   60.01 | X-H torsion
[ 6656 1882 1881 1878 ] final  159.03 input   60.00 | X-H torsion
[ 7002 2256 2255 2252 ] final   10.49 input   60.00 | X-H torsion
[ 6986 2270 2269 2268 ] final -142.80 input   59.99 | X-H torsion
[ 9089 4362 4361 4358 ] final   95.88 input   60.01 | X-H torsion
[ 9191 4472 4471 4469 ] final   50.79 input   60.00 | X-H torsion
[ 9201 4474 4473 4471 ] final  -96.61 input   60.00 | X-H torsion
[ 9219 4506 4505 4504 ] final  -38.11 input   60.00 | X-H torsion
[ 9220 4508 4507 4505 ] final  -14.41 input   60.00 | X-H torsion
[ 9214 4510 4509 4507 ] final  -19.39 input   60.00 | X-H torsion

> <Gold.Protein.ActiveResidues>
 TYR305  THR331  LEU332  MET333  LEU349  GLY350  MET351  HIS352  GLY353  ASN358 
 VAL372  ARG373  PHE374  ASP375  ASP376  ARG377  VAL378  THR379  GLY380  LYS381 
 LEU382  PHE385  ASN404  GLY508  GLY509  TRP574  ILE651  PRO652  SER653  GLY654 
 GLY655  FAD702  HOH839  HOH865  HOH881  HOH913  HOH945  HOH958  HOH960  HOH966 
 HOH968 

> <Gold.Protein.RotatedAtoms>
   59.7315  -73.0269   -3.7647 H   0  0  0  0  0  0  0  0  0  0  0  0  # atno 6459 bound_to 1704
   61.7166  -67.9968   -5.5071 H   0  0  0  0  0  0  0  0  0  0  0  0  # atno 6656 bound_to 1882
   61.8723  -89.7520   -1.2293 H   0  0  0  0  0  0  0  0  0  0  0  0  # atno 6986 bound_to 2270
   62.6003  -90.6304   -2.4317 H   0  0  0  0  0  0  0  0  0  0  0  0  # atno 6987 bound_to 2270
   63.5259  -89.8263   -1.3163 H   0  0  0  0  0  0  0  0  0  0  0  0  # atno 6988 bound_to 2270
   62.2185  -80.2795   -5.7614 H   0  0  0  0  0  0  0  0  0  0  0  0  # atno 7002 bound_to 2256
   70.2002  -81.4123  -12.2063 H   0  0  0  0  0  0  0  0  0  0  0  0  # atno 9089 bound_to 4362
   52.8140  -69.4639   -6.8468 H   0  0  0  0  0  0  0  0  0  0  0  0  # atno 9191 bound_to 4472
   51.1471  -67.4567   -9.3041 H   0  0  0  0  0  0  0  0  0  0  0  0  # atno 9201 bound_to 4474
   62.9733  -72.5315   -8.3935 H   0  0  0  0  0  0  0  0  0  0  0  0  # atno 9214 bound_to 4510
   64.6748  -71.7924  -12.1644 H   0  0  0  0  0  0  0  0  0  0  0  0  # atno 9219 bound_to 4506
   64.0429  -69.6263  -11.0724 H   0  0  0  0  0  0  0  0  0  0  0  0  # atno 9220 bound_to 4508
   60.0540  -74.4959   -3.1434 LP  0  0  0  0  0  0  0  0  0  0  0  0  # atno 9615 bound_to 1704
   61.2493  -73.3955   -3.3081 LP  0  0  0  0  0  0  0  0  0  0  0  0  # atno 9616 bound_to 1704
   62.9355  -67.0023   -5.0907 LP  0  0  0  0  0  0  0  0  0  0  0  0  # atno 9619 bound_to 1882
   61.7609  -67.3546   -4.0125 LP  0  0  0  0  0  0  0  0  0  0  0  0  # atno 9620 bound_to 1882
   60.8452  -79.4226   -5.9284 LP  0  0  0  0  0  0  0  0  0  0  0  0  # atno 9664 bound_to 2256
   60.7876  -80.9695   -5.4084 LP  0  0  0  0  0  0  0  0  0  0  0  0  # atno 9665 bound_to 2256
   69.0712  -80.8562  -11.1746 LP  0  0  0  0  0  0  0  0  0  0  0  0  # atno 9690 bound_to 4362
   68.6519  -81.2898  -12.6921 LP  0  0  0  0  0  0  0  0  0  0  0  0  # atno 9691 bound_to 4362
   53.7771  -70.1970   -7.9345 LP  0  0  0  0  0  0  0  0  0  0  0  0  # atno 9698 bound_to 4472
   52.3045  -69.6505   -8.3809 LP  0  0  0  0  0  0  0  0  0  0  0  0  # atno 9699 bound_to 4472
   50.6766  -67.2122   -7.7657 LP  0  0  0  0  0  0  0  0  0  0  0  0  # atno 9700 bound_to 4474
   51.3367  -68.6402   -8.2036 LP  0  0  0  0  0  0  0  0  0  0  0  0  # atno 9701 bound_to 4474
   63.4708  -72.7690  -11.6698 LP  0  0  0  0  0  0  0  0  0  0  0  0  # atno 9709 bound_to 4506
   65.0262  -73.1774  -11.3856 LP  0  0  0  0  0  0  0  0  0  0  0  0  # atno 9710 bound_to 4506
   62.7347  -69.0176  -10.3200 LP  0  0  0  0  0  0  0  0  0  0  0  0  # atno 9711 bound_to 4508
   62.5605  -69.8891  -11.6900 LP  0  0  0  0  0  0  0  0  0  0  0  0  # atno 9712 bound_to 4508
   62.2745  -71.7709   -7.1360 LP  0  0  0  0  0  0  0  0  0  0  0  0  # atno 9713 bound_to 4510
   63.8752  -71.5999   -7.4103 LP  0  0  0  0  0  0  0  0  0  0  0  0  # atno 9714 bound_to 4510

$$$$
