C12H12ClN5O4S|Chlorsulfuron|mol|1|dock6
  -GOLD-   2292219373D 1   1.00000     0.00000
 
 35 36  0  0  0  0  0  0  0  0  1 V2000
   58.2784  -77.5801  -17.3580 C   0  0  0  0  0  0  0  0  0  0  0  0
   59.1165  -76.9876  -16.2545 C   0  0  0  0  0  0  0  0  0  0  0  0
   60.1513  -77.6583  -15.7800 N   0  0  0  0  0  0  0  0  0  0  0  0
   60.8928  -77.1377  -14.8062 C   0  0  0  0  0  0  0  0  0  0  0  0
   60.5917  -75.9429  -14.3114 N   0  0  0  0  0  0  0  0  0  0  0  0
   59.5517  -75.2723  -14.7906 C   0  0  0  0  0  0  0  0  0  0  0  0
   58.8181  -75.7955  -15.7673 N   0  0  0  0  0  0  0  0  0  0  0  0
   59.2416  -74.0547  -14.2885 O   0  0  0  0  0  0  0  0  0  0  0  0
   59.3536  -73.1228  -15.3661 C   0  0  0  0  0  0  0  0  0  0  0  0
   61.9774  -77.8414  -14.3085 N   0  0  0  0  0  0  0  0  0  0  0  0
   62.9411  -78.2744  -15.1452 C   0  0  0  0  0  0  0  0  0  0  0  0
   62.8587  -78.0475  -16.3367 O   0  0  0  0  0  0  0  0  0  0  0  0
   63.9963  -78.9591  -14.6611 N   0  0  0  0  0  0  0  0  0  0  0  0
   65.1151  -79.5997  -15.7005 S   0  0  0  0  0  0  0  0  0  0  0  0
   65.7948  -78.4888  -16.2688 O   0  0  0  0  0  0  0  0  0  0  0  0
   65.7316  -80.6675  -14.9939 O   0  0  0  0  0  0  0  0  0  0  0  0
   64.2321  -80.3507  -17.0274 C   0  0  0  0  0  0  0  0  0  0  0  0
   64.3167  -79.8212  -18.3011 C   0  0  0  0  0  0  0  0  0  0  0  0
   63.6238  -80.4102  -19.3424 C   0  0  0  0  0  0  0  0  0  0  0  0
   62.8457  -81.5287  -19.1102 C   0  0  0  0  0  0  0  0  0  0  0  0
   62.7599  -82.0592  -17.8366 C   0  0  0  0  0  0  0  0  0  0  0  0
   63.4582  -81.4740  -16.7955 C   0  0  0  0  0  0  0  0  0  0  0  0
   63.3513  -82.1399  -15.1958 Cl  0  0  0  0  0  0  0  0  0  0  0  0
   57.4682  -78.1661  -16.9241 H   0  0  0  0  0  0  0  0  0  0  0  0
   57.8611  -76.7787  -17.9676 H   0  0  0  0  0  0  0  0  0  0  0  0
   58.8997  -78.2242  -17.9802 H   0  0  0  0  0  0  0  0  0  0  0  0
   59.1116  -72.1222  -15.0077 H   0  0  0  0  0  0  0  0  0  0  0  0
   60.3730  -73.1341  -15.7517 H   0  0  0  0  0  0  0  0  0  0  0  0
   58.6615  -73.4014  -16.1608 H   0  0  0  0  0  0  0  0  0  0  0  0
   62.0432  -78.0225  -13.3578 H   0  0  0  0  0  0  0  0  0  0  0  0
   64.1004  -79.0764  -13.7039 H   0  0  0  0  0  0  0  0  0  0  0  0
   64.9239  -78.9467  -18.4830 H   0  0  0  0  0  0  0  0  0  0  0  0
   63.6901  -79.9960  -20.3376 H   0  0  0  0  0  0  0  0  0  0  0  0
   62.3044  -81.9883  -19.9240 H   0  0  0  0  0  0  0  0  0  0  0  0
   62.1513  -82.9327  -17.6551 H   0  0  0  0  0  0  0  0  0  0  0  0
  1  2  1  0  0  0  0
  2  3  2  0  0  0  0
  3  4  1  0  0  0  0
  4  5  2  0  0  0  0
  5  6  1  0  0  0  0
  6  7  2  0  0  0  0
  2  7  1  0  0  0  0
  6  8  1  0  0  0  0
  8  9  1  0  0  0  0
  4 10  1  0  0  0  0
 10 11  1  0  0  0  0
 11 12  2  0  0  0  0
 11 13  1  0  0  0  0
 13 14  1  0  0  0  0
 14 15  2  0  0  0  0
 14 16  2  0  0  0  0
 14 17  1  0  0  0  0
 17 18  2  0  0  0  0
 18 19  1  0  0  0  0
 19 20  2  0  0  0  0
 20 21  1  0  0  0  0
 21 22  2  0  0  0  0
 17 22  1  0  0  0  0
 22 23  1  0  0  0  0
  1 24  1  0  0  0  0
  1 25  1  0  0  0  0
  1 26  1  0  0  0  0
  9 27  1  0  0  0  0
  9 28  1  0  0  0  0
  9 29  1  0  0  0  0
 10 30  1  0  0  0  0
 13 31  1  0  0  0  0
 18 32  1  0  0  0  0
 19 33  1  0  0  0  0
 20 34  1  0  0  0  0
 21 35  1  0  0  0  0
M  END
> <Gold.Version>
2021.2.0

> <Gold.Id.Protein>
5K6Q|5K6Q_protein|mol2

> <Gold.PLP.Fitness>
27.6775

> <Gold.PLP.PLP>
-14.2976

> <Gold.PLP.part.hbond>
-6.2485

> <Gold.PLP.part.metal>
0.0000

> <Gold.PLP.part.buried>
-4.1833

> <Gold.PLP.part.nonpolar>
-4.4640

> <Gold.PLP.part.repulsive>
0.4962

> <Gold.PLP.ligand.clash>
0.0000

> <Gold.PLP.ligand.torsion>
2.0867

> <Gold.PLP.Chemscore.Hbond>
4.7600

> <Gold.PLP.Chemscore.CHOScore>
0.0000

> <Gold.PLP.Chemscore.Metal>
0.0000

> <Gold.Chemscore.Hbonds>
donor molecule, donor type, donor heavy atom, donor atom, acceptor molecule, acceptor atom, score
      L1  H    10    30       P1  2231  1.00
      L1  H    13    31       P1  2232  1.00
      P1  H  2204  6935       L1     8  0.86
      P1  H  2243  6968       L1    16  0.90
      P1  H  4724  9546       L1    16  1.00

> <Gold.PLP.Chemscore.Internal.Correction>
3.2734

> <Gold.Protein.RotatedTorsions>
[ 6459 1704 1703 1701 ] final  -45.65 input   60.01 | X-H torsion
[ 6656 1882 1881 1878 ] final  167.94 input   60.00 | X-H torsion
[ 7002 2256 2255 2252 ] final  150.45 input   60.00 | X-H torsion
[ 6986 2270 2269 2268 ] final -123.91 input   59.99 | X-H torsion
[ 9089 4362 4361 4358 ] final  -80.28 input   60.01 | X-H torsion
[ 9191 4472 4471 4469 ] final   11.37 input   60.00 | X-H torsion
[ 9201 4474 4473 4471 ] final  -76.80 input   60.00 | X-H torsion
[ 9219 4506 4505 4504 ] final  -88.13 input   60.00 | X-H torsion
[ 9220 4508 4507 4505 ] final -167.59 input   60.00 | X-H torsion
[ 9214 4510 4509 4507 ] final  106.26 input   60.00 | X-H torsion

> <Gold.Protein.ActiveResidues>
 TYR305  THR331  LEU332  MET333  LEU349  GLY350  MET351  HIS352  GLY353  ASN358 
 VAL372  ARG373  PHE374  ASP375  ASP376  ARG377  VAL378  THR379  GLY380  LYS381 
 LEU382  PHE385  ASN404  GLY508  GLY509  TRP574  ILE651  PRO652  SER653  GLY654 
 GLY655  FAD702  HOH839  HOH865  HOH881  HOH913  HOH945  HOH958  HOH960  HOH966 
 HOH968 

> <Gold.Protein.RotatedAtoms>
   60.4260  -72.7597   -3.7196 H   0  0  0  0  0  0  0  0  0  0  0  0  # atno 6459 bound_to 1704
   61.6174  -68.0215   -5.4037 H   0  0  0  0  0  0  0  0  0  0  0  0  # atno 6656 bound_to 1882
   61.7420  -89.9194   -1.4609 H   0  0  0  0  0  0  0  0  0  0  0  0  # atno 6986 bound_to 2270
   62.9129  -90.6141   -2.4064 H   0  0  0  0  0  0  0  0  0  0  0  0  # atno 6987 bound_to 2270
   63.3435  -89.6753   -1.1100 H   0  0  0  0  0  0  0  0  0  0  0  0  # atno 6988 bound_to 2270
   60.5510  -80.7512   -5.4578 H   0  0  0  0  0  0  0  0  0  0  0  0  # atno 7002 bound_to 2256
   68.4370  -80.9478  -11.7844 H   0  0  0  0  0  0  0  0  0  0  0  0  # atno 9089 bound_to 4362
   53.3845  -69.7321   -6.8827 H   0  0  0  0  0  0  0  0  0  0  0  0  # atno 9191 bound_to 4472
   51.2699  -67.7526   -9.3373 H   0  0  0  0  0  0  0  0  0  0  0  0  # atno 9201 bound_to 4474
   63.8254  -71.5591   -7.3432 H   0  0  0  0  0  0  0  0  0  0  0  0  # atno 9214 bound_to 4510
   63.8901  -71.8935  -12.1374 H   0  0  0  0  0  0  0  0  0  0  0  0  # atno 9219 bound_to 4506
   62.3316  -69.1857  -10.6314 H   0  0  0  0  0  0  0  0  0  0  0  0  # atno 9220 bound_to 4508
   59.5041  -74.0670   -3.4215 LP  0  0  0  0  0  0  0  0  0  0  0  0  # atno 9615 bound_to 1704
   61.0997  -74.0935   -3.0755 LP  0  0  0  0  0  0  0  0  0  0  0  0  # atno 9616 bound_to 1704
   62.9216  -67.0653   -5.2222 LP  0  0  0  0  0  0  0  0  0  0  0  0  # atno 9619 bound_to 1882
   61.8747  -67.2667   -3.9852 LP  0  0  0  0  0  0  0  0  0  0  0  0  # atno 9620 bound_to 1882
   62.1571  -80.5821   -5.6578 LP  0  0  0  0  0  0  0  0  0  0  0  0  # atno 9664 bound_to 2256
   61.1549  -79.3349   -5.9848 LP  0  0  0  0  0  0  0  0  0  0  0  0  # atno 9665 bound_to 2256
   69.4881  -81.5102  -12.8922 LP  0  0  0  0  0  0  0  0  0  0  0  0  # atno 9690 bound_to 4362
   70.0105  -81.1036  -11.3994 LP  0  0  0  0  0  0  0  0  0  0  0  0  # atno 9691 bound_to 4362
   53.4062  -70.1684   -8.4502 LP  0  0  0  0  0  0  0  0  0  0  0  0  # atno 9698 bound_to 4472
   52.1008  -69.4090   -7.8290 LP  0  0  0  0  0  0  0  0  0  0  0  0  # atno 9699 bound_to 4472
   50.6615  -67.0134   -8.0214 LP  0  0  0  0  0  0  0  0  0  0  0  0  # atno 9700 bound_to 4474
   51.2281  -68.5412   -7.9145 LP  0  0  0  0  0  0  0  0  0  0  0  0  # atno 9701 bound_to 4474
   63.9544  -73.3155  -11.3487 LP  0  0  0  0  0  0  0  0  0  0  0  0  # atno 9709 bound_to 4506
   65.3328  -72.5291  -11.7339 LP  0  0  0  0  0  0  0  0  0  0  0  0  # atno 9710 bound_to 4506
   63.0663  -70.0193  -11.8203 LP  0  0  0  0  0  0  0  0  0  0  0  0  # atno 9711 bound_to 4508
   63.9524  -69.3311  -10.6337 LP  0  0  0  0  0  0  0  0  0  0  0  0  # atno 9712 bound_to 4508
   63.0646  -72.5248   -8.4093 LP  0  0  0  0  0  0  0  0  0  0  0  0  # atno 9713 bound_to 4510
   62.2269  -71.8252   -7.1946 LP  0  0  0  0  0  0  0  0  0  0  0  0  # atno 9714 bound_to 4510

$$$$
