C12H12ClN5O4S|Chlorsulfuron|mol|1|dock15
  -GOLD-   2292219383D 1   1.00000     0.00000
 
 35 36  0  0  0  0  0  0  0  0  1 V2000
   57.8329  -78.0589  -16.4343 C   0  0  0  0  0  0  0  0  0  0  0  0
   58.8823  -77.3321  -15.6332 C   0  0  0  0  0  0  0  0  0  0  0  0
   59.9978  -77.9525  -15.2917 N   0  0  0  0  0  0  0  0  0  0  0  0
   60.9257  -77.3135  -14.5847 C   0  0  0  0  0  0  0  0  0  0  0  0
   60.7296  -76.0511  -14.2226 N   0  0  0  0  0  0  0  0  0  0  0  0
   59.6080  -75.4315  -14.5676 C   0  0  0  0  0  0  0  0  0  0  0  0
   58.6871  -76.0737  -15.2785 N   0  0  0  0  0  0  0  0  0  0  0  0
   59.4044  -74.1453  -14.1999 O   0  0  0  0  0  0  0  0  0  0  0  0
   59.1935  -73.4007  -15.4013 C   0  0  0  0  0  0  0  0  0  0  0  0
   62.0950  -77.9642  -14.2263 N   0  0  0  0  0  0  0  0  0  0  0  0
   62.9433  -78.3993  -15.1790 C   0  0  0  0  0  0  0  0  0  0  0  0
   62.6823  -78.2207  -16.3528 O   0  0  0  0  0  0  0  0  0  0  0  0
   64.0809  -79.0325  -14.8304 N   0  0  0  0  0  0  0  0  0  0  0  0
   65.0607  -79.6780  -15.9990 S   0  0  0  0  0  0  0  0  0  0  0  0
   65.3826  -78.6027  -16.8702 O   0  0  0  0  0  0  0  0  0  0  0  0
   66.0027  -80.4878  -15.3089 O   0  0  0  0  0  0  0  0  0  0  0  0
   64.0814  -80.7900  -16.9524 C   0  0  0  0  0  0  0  0  0  0  0  0
   64.1402  -80.7535  -18.3326 C   0  0  0  0  0  0  0  0  0  0  0  0
   63.3717  -81.6258  -19.0809 C   0  0  0  0  0  0  0  0  0  0  0  0
   62.5439  -82.5346  -18.4491 C   0  0  0  0  0  0  0  0  0  0  0  0
   62.4837  -82.5718  -17.0686 C   0  0  0  0  0  0  0  0  0  0  0  0
   63.2573  -81.7036  -16.3192 C   0  0  0  0  0  0  0  0  0  0  0  0
   63.1828  -81.7501  -14.5854 Cl  0  0  0  0  0  0  0  0  0  0  0  0
   57.1361  -78.5528  -15.7570 H   0  0  0  0  0  0  0  0  0  0  0  0
   57.2915  -77.3456  -17.0558 H   0  0  0  0  0  0  0  0  0  0  0  0
   58.3119  -78.8040  -17.0694 H   0  0  0  0  0  0  0  0  0  0  0  0
   59.0241  -72.3527  -15.1542 H   0  0  0  0  0  0  0  0  0  0  0  0
   60.0723  -73.4859  -16.0405 H   0  0  0  0  0  0  0  0  0  0  0  0
   58.3233  -73.7957  -15.9256 H   0  0  0  0  0  0  0  0  0  0  0  0
   62.3033  -78.1068  -13.2897 H   0  0  0  0  0  0  0  0  0  0  0  0
   64.3256  -79.1100  -13.8950 H   0  0  0  0  0  0  0  0  0  0  0  0
   64.7864  -80.0431  -18.8268 H   0  0  0  0  0  0  0  0  0  0  0  0
   63.4181  -81.5970  -20.1595 H   0  0  0  0  0  0  0  0  0  0  0  0
   61.9436  -83.2156  -19.0342 H   0  0  0  0  0  0  0  0  0  0  0  0
   61.8363  -83.2814  -16.5750 H   0  0  0  0  0  0  0  0  0  0  0  0
  1  2  1  0  0  0  0
  2  3  2  0  0  0  0
  3  4  1  0  0  0  0
  4  5  2  0  0  0  0
  5  6  1  0  0  0  0
  6  7  2  0  0  0  0
  2  7  1  0  0  0  0
  6  8  1  0  0  0  0
  8  9  1  0  0  0  0
  4 10  1  0  0  0  0
 10 11  1  0  0  0  0
 11 12  2  0  0  0  0
 11 13  1  0  0  0  0
 13 14  1  0  0  0  0
 14 15  2  0  0  0  0
 14 16  2  0  0  0  0
 14 17  1  0  0  0  0
 17 18  2  0  0  0  0
 18 19  1  0  0  0  0
 19 20  2  0  0  0  0
 20 21  1  0  0  0  0
 21 22  2  0  0  0  0
 17 22  1  0  0  0  0
 22 23  1  0  0  0  0
  1 24  1  0  0  0  0
  1 25  1  0  0  0  0
  1 26  1  0  0  0  0
  9 27  1  0  0  0  0
  9 28  1  0  0  0  0
  9 29  1  0  0  0  0
 10 30  1  0  0  0  0
 13 31  1  0  0  0  0
 18 32  1  0  0  0  0
 19 33  1  0  0  0  0
 20 34  1  0  0  0  0
 21 35  1  0  0  0  0
M  END
> <Gold.Version>
2021.2.0

> <Gold.Id.Protein>
5K6Q|5K6Q_protein|mol2

> <Gold.PLP.Fitness>
28.4926

> <Gold.PLP.PLP>
-15.8892

> <Gold.PLP.part.hbond>
-7.9874

> <Gold.PLP.part.metal>
0.0000

> <Gold.PLP.part.buried>
-3.5770

> <Gold.PLP.part.nonpolar>
-5.4024

> <Gold.PLP.part.repulsive>
0.5257

> <Gold.PLP.ligand.clash>
0.0000

> <Gold.PLP.ligand.torsion>
2.2500

> <Gold.PLP.Chemscore.Hbond>
4.6100

> <Gold.PLP.Chemscore.CHOScore>
0.0000

> <Gold.PLP.Chemscore.Metal>
0.0000

> <Gold.Chemscore.Hbonds>
donor molecule, donor type, donor heavy atom, donor atom, acceptor molecule, acceptor atom, score
      L1  H    10    30       P1  2231  0.85
      L1  H    13    31       P1  2232  1.00
      P1  H  2204  6935       L1     8  0.98
      P1  H  2243  6968       L1    16  0.78
      P1  H  4724  9546       L1    16  1.00

> <Gold.PLP.Chemscore.Internal.Correction>
3.2734

> <Gold.Protein.RotatedTorsions>
[ 6459 1704 1703 1701 ] final -105.72 input   60.01 | X-H torsion
[ 6656 1882 1881 1878 ] final   70.31 input   60.00 | X-H torsion
[ 7002 2256 2255 2252 ] final  103.91 input   60.00 | X-H torsion
[ 6986 2270 2269 2268 ] final   47.60 input   59.99 | X-H torsion
[ 9089 4362 4361 4358 ] final  143.00 input   60.01 | X-H torsion
[ 9191 4472 4471 4469 ] final   57.33 input   60.00 | X-H torsion
[ 9201 4474 4473 4471 ] final  124.71 input   60.00 | X-H torsion
[ 9219 4506 4505 4504 ] final  162.69 input   60.00 | X-H torsion
[ 9220 4508 4507 4505 ] final  118.55 input   60.00 | X-H torsion
[ 9214 4510 4509 4507 ] final -142.85 input   60.00 | X-H torsion

> <Gold.Protein.ActiveResidues>
 TYR305  THR331  LEU332  MET333  LEU349  GLY350  MET351  HIS352  GLY353  ASN358 
 VAL372  ARG373  PHE374  ASP375  ASP376  ARG377  VAL378  THR379  GLY380  LYS381 
 LEU382  PHE385  ASN404  GLY508  GLY509  TRP574  ILE651  PRO652  SER653  GLY654 
 GLY655  FAD702  HOH839  HOH865  HOH881  HOH913  HOH945  HOH958  HOH960  HOH966 
 HOH968 

> <Gold.Protein.RotatedAtoms>
   59.5917  -73.1864   -3.7338 H   0  0  0  0  0  0  0  0  0  0  0  0  # atno 6459 bound_to 1704
   62.8015  -67.2639   -5.5033 H   0  0  0  0  0  0  0  0  0  0  0  0  # atno 6656 bound_to 1882
   63.5433  -90.2982   -1.9658 H   0  0  0  0  0  0  0  0  0  0  0  0  # atno 6986 bound_to 2270
   62.5585  -89.5105   -0.8901 H   0  0  0  0  0  0  0  0  0  0  0  0  # atno 6987 bound_to 2270
   61.8962  -90.4004   -2.1218 H   0  0  0  0  0  0  0  0  0  0  0  0  # atno 6988 bound_to 2270
   61.1974  -81.1054   -5.3967 H   0  0  0  0  0  0  0  0  0  0  0  0  # atno 7002 bound_to 2256
   69.7395  -81.5229  -12.7856 H   0  0  0  0  0  0  0  0  0  0  0  0  # atno 9089 bound_to 4362
   52.7188  -69.4302   -6.8816 H   0  0  0  0  0  0  0  0  0  0  0  0  # atno 9191 bound_to 4472
   50.7362  -67.4621   -7.6011 H   0  0  0  0  0  0  0  0  0  0  0  0  # atno 9201 bound_to 4474
   62.3120  -71.7384   -7.1077 H   0  0  0  0  0  0  0  0  0  0  0  0  # atno 9214 bound_to 4510
   63.8094  -73.2273  -11.4003 H   0  0  0  0  0  0  0  0  0  0  0  0  # atno 9219 bound_to 4506
   62.4092  -69.8008  -11.5703 H   0  0  0  0  0  0  0  0  0  0  0  0  # atno 9220 bound_to 4508
   60.2614  -74.5223   -3.0898 LP  0  0  0  0  0  0  0  0  0  0  0  0  # atno 9615 bound_to 1704
   61.1827  -73.2085   -3.3929 LP  0  0  0  0  0  0  0  0  0  0  0  0  # atno 9616 bound_to 1704
   62.1820  -67.0701   -4.0110 LP  0  0  0  0  0  0  0  0  0  0  0  0  # atno 9619 bound_to 1882
   61.4219  -68.0248   -5.0961 LP  0  0  0  0  0  0  0  0  0  0  0  0  # atno 9620 bound_to 1882
   62.1405  -79.8751   -5.8916 LP  0  0  0  0  0  0  0  0  0  0  0  0  # atno 9664 bound_to 2256
   60.5205  -79.6852   -5.8124 LP  0  0  0  0  0  0  0  0  0  0  0  0  # atno 9665 bound_to 2256
   69.8053  -81.0130  -11.2416 LP  0  0  0  0  0  0  0  0  0  0  0  0  # atno 9690 bound_to 4362
   68.3817  -81.0216  -12.0417 LP  0  0  0  0  0  0  0  0  0  0  0  0  # atno 9691 bound_to 4362
   53.8052  -70.1819   -7.8318 LP  0  0  0  0  0  0  0  0  0  0  0  0  # atno 9698 bound_to 4472
   52.3722  -69.6995   -8.4486 LP  0  0  0  0  0  0  0  0  0  0  0  0  # atno 9699 bound_to 4472
   51.4085  -68.6393   -8.5011 LP  0  0  0  0  0  0  0  0  0  0  0  0  # atno 9700 bound_to 4474
   51.0187  -67.2078   -9.1833 LP  0  0  0  0  0  0  0  0  0  0  0  0  # atno 9701 bound_to 4474
   65.3234  -72.6845  -11.6480 LP  0  0  0  0  0  0  0  0  0  0  0  0  # atno 9709 bound_to 4506
   64.0451  -71.8168  -12.1769 LP  0  0  0  0  0  0  0  0  0  0  0  0  # atno 9710 bound_to 4506
   64.0033  -69.7350  -11.2502 LP  0  0  0  0  0  0  0  0  0  0  0  0  # atno 9711 bound_to 4508
   62.9373  -68.9960  -10.2583 LP  0  0  0  0  0  0  0  0  0  0  0  0  # atno 9712 bound_to 4508
   63.8980  -71.6272   -7.4547 LP  0  0  0  0  0  0  0  0  0  0  0  0  # atno 9713 bound_to 4510
   62.9176  -72.5423   -8.3864 LP  0  0  0  0  0  0  0  0  0  0  0  0  # atno 9714 bound_to 4510

$$$$
