C12H12ClN5O4S|Chlorsulfuron|mol|1|dock28
  -GOLD-   2292219383D 1   1.00000     0.00000
 
 35 36  0  0  0  0  0  0  0  0  1 V2000
   63.5675  -74.6050  -18.0873 C   0  0  0  0  0  0  0  0  0  0  0  0
   62.7022  -75.2051  -17.0092 C   0  0  0  0  0  0  0  0  0  0  0  0
   63.1511  -76.2205  -16.2926 N   0  0  0  0  0  0  0  0  0  0  0  0
   62.3896  -76.7520  -15.3404 C   0  0  0  0  0  0  0  0  0  0  0  0
   61.1774  -76.2610  -15.1109 N   0  0  0  0  0  0  0  0  0  0  0  0
   60.7301  -75.2412  -15.8326 C   0  0  0  0  0  0  0  0  0  0  0  0
   61.4979  -74.7110  -16.7788 N   0  0  0  0  0  0  0  0  0  0  0  0
   59.4953  -74.7385  -15.6019 O   0  0  0  0  0  0  0  0  0  0  0  0
   59.6700  -73.3723  -15.2208 C   0  0  0  0  0  0  0  0  0  0  0  0
   62.8602  -77.8169  -14.5896 N   0  0  0  0  0  0  0  0  0  0  0  0
   63.4811  -78.8474  -15.1970 C   0  0  0  0  0  0  0  0  0  0  0  0
   63.6279  -78.8427  -16.4038 O   0  0  0  0  0  0  0  0  0  0  0  0
   63.9390  -79.8835  -14.4666 N   0  0  0  0  0  0  0  0  0  0  0  0
   64.5881  -81.2064  -15.2221 S   0  0  0  0  0  0  0  0  0  0  0  0
   65.8013  -80.7583  -15.8107 O   0  0  0  0  0  0  0  0  0  0  0  0
   64.4698  -82.2771  -14.2953 O   0  0  0  0  0  0  0  0  0  0  0  0
   63.5271  -81.6183  -16.5671 C   0  0  0  0  0  0  0  0  0  0  0  0
   64.0594  -81.8523  -17.8208 C   0  0  0  0  0  0  0  0  0  0  0  0
   63.2270  -82.1754  -18.8763 C   0  0  0  0  0  0  0  0  0  0  0  0
   61.8619  -82.2642  -18.6785 C   0  0  0  0  0  0  0  0  0  0  0  0
   61.3282  -82.0299  -17.4251 C   0  0  0  0  0  0  0  0  0  0  0  0
   62.1612  -81.7130  -16.3671 C   0  0  0  0  0  0  0  0  0  0  0  0
   61.4916  -81.4192  -14.7926 Cl  0  0  0  0  0  0  0  0  0  0  0  0
   63.3804  -75.1177  -19.0308 H   0  0  0  0  0  0  0  0  0  0  0  0
   63.3309  -73.5466  -18.1959 H   0  0  0  0  0  0  0  0  0  0  0  0
   64.6170  -74.7168  -17.8150 H   0  0  0  0  0  0  0  0  0  0  0  0
   58.6968  -72.9228  -15.0237 H   0  0  0  0  0  0  0  0  0  0  0  0
   60.2827  -73.3217  -14.3208 H   0  0  0  0  0  0  0  0  0  0  0  0
   60.1639  -72.8305  -16.0274 H   0  0  0  0  0  0  0  0  0  0  0  0
   62.7430  -77.8208  -13.6267 H   0  0  0  0  0  0  0  0  0  0  0  0
   63.8883  -79.8541  -13.4984 H   0  0  0  0  0  0  0  0  0  0  0  0
   65.1260  -81.7824  -17.9761 H   0  0  0  0  0  0  0  0  0  0  0  0
   63.6435  -82.3582  -19.8559 H   0  0  0  0  0  0  0  0  0  0  0  0
   61.2121  -82.5164  -19.5035 H   0  0  0  0  0  0  0  0  0  0  0  0
   60.2615  -82.0985  -17.2708 H   0  0  0  0  0  0  0  0  0  0  0  0
  1  2  1  0  0  0  0
  2  3  2  0  0  0  0
  3  4  1  0  0  0  0
  4  5  2  0  0  0  0
  5  6  1  0  0  0  0
  6  7  2  0  0  0  0
  2  7  1  0  0  0  0
  6  8  1  0  0  0  0
  8  9  1  0  0  0  0
  4 10  1  0  0  0  0
 10 11  1  0  0  0  0
 11 12  2  0  0  0  0
 11 13  1  0  0  0  0
 13 14  1  0  0  0  0
 14 15  2  0  0  0  0
 14 16  2  0  0  0  0
 14 17  1  0  0  0  0
 17 18  2  0  0  0  0
 18 19  1  0  0  0  0
 19 20  2  0  0  0  0
 20 21  1  0  0  0  0
 21 22  2  0  0  0  0
 17 22  1  0  0  0  0
 22 23  1  0  0  0  0
  1 24  1  0  0  0  0
  1 25  1  0  0  0  0
  1 26  1  0  0  0  0
  9 27  1  0  0  0  0
  9 28  1  0  0  0  0
  9 29  1  0  0  0  0
 10 30  1  0  0  0  0
 13 31  1  0  0  0  0
 18 32  1  0  0  0  0
 19 33  1  0  0  0  0
 20 34  1  0  0  0  0
 21 35  1  0  0  0  0
M  END
> <Gold.Version>
2021.2.0

> <Gold.Id.Protein>
5K6Q|5K6Q_protein|mol2

> <Gold.PLP.Fitness>
19.6745

> <Gold.PLP.PLP>
-13.9072

> <Gold.PLP.part.hbond>
-5.1923

> <Gold.PLP.part.metal>
0.0000

> <Gold.PLP.part.buried>
-2.8024

> <Gold.PLP.part.nonpolar>
-8.1270

> <Gold.PLP.part.repulsive>
0.6908

> <Gold.PLP.ligand.clash>
0.0000

> <Gold.PLP.ligand.torsion>
2.0435

> <Gold.PLP.Chemscore.Hbond>
2.1950

> <Gold.PLP.Chemscore.CHOScore>
0.0000

> <Gold.PLP.Chemscore.Metal>
0.0000

> <Gold.Chemscore.Hbonds>
donor molecule, donor type, donor heavy atom, donor atom, acceptor molecule, acceptor atom, score
      L1  H    10    30       P1  2231  0.70
      L1  H    13    31       P1  2232  1.00
      P1  H  4724  9546       L1    15  0.35
      P1  H  4726  9604       L1    16  0.15

> <Gold.PLP.Chemscore.Internal.Correction>
3.2693

> <Gold.Protein.RotatedTorsions>
[ 6459 1704 1703 1701 ] final  -26.95 input   60.01 | X-H torsion
[ 6656 1882 1881 1878 ] final -138.10 input   60.00 | X-H torsion
[ 7002 2256 2255 2252 ] final   16.70 input   60.00 | X-H torsion
[ 6986 2270 2269 2268 ] final  165.08 input   59.99 | X-H torsion
[ 9089 4362 4361 4358 ] final  -86.32 input   60.01 | X-H torsion
[ 9191 4472 4471 4469 ] final   71.30 input   60.00 | X-H torsion
[ 9201 4474 4473 4471 ] final   71.90 input   60.00 | X-H torsion
[ 9219 4506 4505 4504 ] final  -32.20 input   60.00 | X-H torsion
[ 9220 4508 4507 4505 ] final  173.75 input   60.00 | X-H torsion
[ 9214 4510 4509 4507 ] final -128.96 input   60.00 | X-H torsion

> <Gold.Protein.ActiveResidues>
 TYR305  THR331  LEU332  MET333  LEU349  GLY350  MET351  HIS352  GLY353  ASN358 
 VAL372  ARG373  PHE374  ASP375  ASP376  ARG377  VAL378  THR379  GLY380  LYS381 
 LEU382  PHE385  ASN404  GLY508  GLY509  TRP574  ILE651  PRO652  SER653  GLY654 
 GLY655  FAD702  HOH839  HOH865  HOH881  HOH913  HOH945  HOH958  HOH960  HOH966 
 HOH968 

> <Gold.Protein.RotatedAtoms>
   60.7148  -72.8108   -3.6394 H   0  0  0  0  0  0  0  0  0  0  0  0  # atno 6459 bound_to 1704
   61.3462  -67.8812   -4.6109 H   0  0  0  0  0  0  0  0  0  0  0  0  # atno 6656 bound_to 1882
   62.6006  -89.5083   -0.8869 H   0  0  0  0  0  0  0  0  0  0  0  0  # atno 6986 bound_to 2270
   61.8722  -90.3802   -2.0939 H   0  0  0  0  0  0  0  0  0  0  0  0  # atno 6987 bound_to 2270
   63.5258  -90.3205   -1.9968 H   0  0  0  0  0  0  0  0  0  0  0  0  # atno 6988 bound_to 2270
   62.2094  -80.3752   -5.7288 H   0  0  0  0  0  0  0  0  0  0  0  0  # atno 7002 bound_to 2256
   68.4104  -80.9736  -11.8757 H   0  0  0  0  0  0  0  0  0  0  0  0  # atno 9089 bound_to 4362
   52.5278  -69.3735   -6.9917 H   0  0  0  0  0  0  0  0  0  0  0  0  # atno 9191 bound_to 4472
   51.0403  -68.2370   -7.6159 H   0  0  0  0  0  0  0  0  0  0  0  0  # atno 9201 bound_to 4474
   62.1984  -71.8709   -7.2517 H   0  0  0  0  0  0  0  0  0  0  0  0  # atno 9214 bound_to 4510
   64.7652  -71.8207  -12.1454 H   0  0  0  0  0  0  0  0  0  0  0  0  # atno 9219 bound_to 4506
   62.2102  -69.3292  -10.8700 H   0  0  0  0  0  0  0  0  0  0  0  0  # atno 9220 bound_to 4508
   59.4239  -73.7966   -3.5407 LP  0  0  0  0  0  0  0  0  0  0  0  0  # atno 9615 bound_to 1704
   60.8891  -74.3124   -3.0370 LP  0  0  0  0  0  0  0  0  0  0  0  0  # atno 9616 bound_to 1704
   62.4758  -67.5778   -5.7423 LP  0  0  0  0  0  0  0  0  0  0  0  0  # atno 9619 bound_to 1882
   62.5936  -66.8955   -4.2634 LP  0  0  0  0  0  0  0  0  0  0  0  0  # atno 9620 bound_to 1882
   60.9376  -79.3842   -5.9493 LP  0  0  0  0  0  0  0  0  0  0  0  0  # atno 9664 bound_to 2256
   60.7043  -80.9115   -5.4204 LP  0  0  0  0  0  0  0  0  0  0  0  0  # atno 9665 bound_to 2256
   69.5830  -81.5181  -12.8641 LP  0  0  0  0  0  0  0  0  0  0  0  0  # atno 9690 bound_to 4362
   69.9424  -81.0697  -11.3355 LP  0  0  0  0  0  0  0  0  0  0  0  0  # atno 9691 bound_to 4362
   53.8283  -70.1322   -7.6092 LP  0  0  0  0  0  0  0  0  0  0  0  0  # atno 9698 bound_to 4472
   52.5415  -69.8064   -8.5603 LP  0  0  0  0  0  0  0  0  0  0  0  0  # atno 9699 bound_to 4472
   51.3998  -68.1788   -9.2019 LP  0  0  0  0  0  0  0  0  0  0  0  0  # atno 9700 bound_to 4474
   50.7210  -66.8878   -8.4676 LP  0  0  0  0  0  0  0  0  0  0  0  0  # atno 9701 bound_to 4474
   63.4549  -72.6854  -11.7168 LP  0  0  0  0  0  0  0  0  0  0  0  0  # atno 9709 bound_to 4506
   64.9511  -73.2325  -11.3578 LP  0  0  0  0  0  0  0  0  0  0  0  0  # atno 9710 bound_to 4506
   63.3693  -70.0202  -11.7793 LP  0  0  0  0  0  0  0  0  0  0  0  0  # atno 9711 bound_to 4508
   63.7716  -69.1857  -10.4345 LP  0  0  0  0  0  0  0  0  0  0  0  0  # atno 9712 bound_to 4508
   63.7884  -71.5259   -7.2824 LP  0  0  0  0  0  0  0  0  0  0  0  0  # atno 9713 bound_to 4510
   63.1416  -72.5101   -8.4136 LP  0  0  0  0  0  0  0  0  0  0  0  0  # atno 9714 bound_to 4510

$$$$
