C12H12ClN5O4S|Chlorsulfuron|mol|1|dock45
  -GOLD-   2292219383D 1   1.00000     0.00000
 
 35 36  0  0  0  0  0  0  0  0  1 V2000
   64.0044  -74.9528  -18.0787 C   0  0  0  0  0  0  0  0  0  0  0  0
   64.3863  -75.2384  -16.6490 C   0  0  0  0  0  0  0  0  0  0  0  0
   64.1617  -76.4338  -16.1330 N   0  0  0  0  0  0  0  0  0  0  0  0
   64.4978  -76.6886  -14.8715 C   0  0  0  0  0  0  0  0  0  0  0  0
   65.0595  -75.7400  -14.1314 N   0  0  0  0  0  0  0  0  0  0  0  0
   65.2835  -74.5407  -14.6533 C   0  0  0  0  0  0  0  0  0  0  0  0
   64.9504  -74.2940  -15.9158 N   0  0  0  0  0  0  0  0  0  0  0  0
   65.8551  -73.5713  -13.9020 O   0  0  0  0  0  0  0  0  0  0  0  0
   67.1896  -73.9988  -13.6219 C   0  0  0  0  0  0  0  0  0  0  0  0
   64.2618  -77.9419  -14.3305 N   0  0  0  0  0  0  0  0  0  0  0  0
   64.5435  -79.0488  -15.0460 C   0  0  0  0  0  0  0  0  0  0  0  0
   65.0047  -78.9473  -16.1662 O   0  0  0  0  0  0  0  0  0  0  0  0
   64.3138  -80.2681  -14.5197 N   0  0  0  0  0  0  0  0  0  0  0  0
   64.5405  -81.6244  -15.4426 S   0  0  0  0  0  0  0  0  0  0  0  0
   65.7099  -81.3775  -16.2110 O   0  0  0  0  0  0  0  0  0  0  0  0
   64.3505  -82.7252  -14.5642 O   0  0  0  0  0  0  0  0  0  0  0  0
   63.2144  -81.7015  -16.6002 C   0  0  0  0  0  0  0  0  0  0  0  0
   63.4748  -81.6271  -17.9554 C   0  0  0  0  0  0  0  0  0  0  0  0
   62.4344  -81.6874  -18.8639 C   0  0  0  0  0  0  0  0  0  0  0  0
   61.1332  -81.8218  -18.4174 C   0  0  0  0  0  0  0  0  0  0  0  0
   60.8714  -81.8958  -17.0621 C   0  0  0  0  0  0  0  0  0  0  0  0
   61.9126  -81.8420  -16.1529 C   0  0  0  0  0  0  0  0  0  0  0  0
   61.5846  -81.9356  -14.4507 Cl  0  0  0  0  0  0  0  0  0  0  0  0
   62.9825  -74.5754  -18.1133 H   0  0  0  0  0  0  0  0  0  0  0  0
   64.6817  -74.2063  -18.4935 H   0  0  0  0  0  0  0  0  0  0  0  0
   64.0728  -75.8703  -18.6632 H   0  0  0  0  0  0  0  0  0  0  0  0
   67.6927  -73.2456  -13.0155 H   0  0  0  0  0  0  0  0  0  0  0  0
   67.1621  -74.9435  -13.0789 H   0  0  0  0  0  0  0  0  0  0  0  0
   67.7320  -74.1334  -14.5578 H   0  0  0  0  0  0  0  0  0  0  0  0
   63.8937  -78.0229  -13.4366 H   0  0  0  0  0  0  0  0  0  0  0  0
   64.0159  -80.3512  -13.6004 H   0  0  0  0  0  0  0  0  0  0  0  0
   64.4913  -81.5214  -18.3048 H   0  0  0  0  0  0  0  0  0  0  0  0
   62.6384  -81.6293  -19.9228 H   0  0  0  0  0  0  0  0  0  0  0  0
   60.3209  -81.8686  -19.1276 H   0  0  0  0  0  0  0  0  0  0  0  0
   59.8546  -82.0000  -16.7133 H   0  0  0  0  0  0  0  0  0  0  0  0
  1  2  1  0  0  0  0
  2  3  2  0  0  0  0
  3  4  1  0  0  0  0
  4  5  2  0  0  0  0
  5  6  1  0  0  0  0
  6  7  2  0  0  0  0
  2  7  1  0  0  0  0
  6  8  1  0  0  0  0
  8  9  1  0  0  0  0
  4 10  1  0  0  0  0
 10 11  1  0  0  0  0
 11 12  2  0  0  0  0
 11 13  1  0  0  0  0
 13 14  1  0  0  0  0
 14 15  2  0  0  0  0
 14 16  2  0  0  0  0
 14 17  1  0  0  0  0
 17 18  2  0  0  0  0
 18 19  1  0  0  0  0
 19 20  2  0  0  0  0
 20 21  1  0  0  0  0
 21 22  2  0  0  0  0
 17 22  1  0  0  0  0
 22 23  1  0  0  0  0
  1 24  1  0  0  0  0
  1 25  1  0  0  0  0
  1 26  1  0  0  0  0
  9 27  1  0  0  0  0
  9 28  1  0  0  0  0
  9 29  1  0  0  0  0
 10 30  1  0  0  0  0
 13 31  1  0  0  0  0
 18 32  1  0  0  0  0
 19 33  1  0  0  0  0
 20 34  1  0  0  0  0
 21 35  1  0  0  0  0
M  END
> <Gold.Version>
2021.2.0

> <Gold.Id.Protein>
5K6Q|5K6Q_protein|mol2

> <Gold.PLP.Fitness>
24.3534

> <Gold.PLP.PLP>
-17.4767

> <Gold.PLP.part.hbond>
-6.4494

> <Gold.PLP.part.metal>
0.0000

> <Gold.PLP.part.buried>
-3.1023

> <Gold.PLP.part.nonpolar>
-10.7985

> <Gold.PLP.part.repulsive>
1.3727

> <Gold.PLP.ligand.clash>
0.0000

> <Gold.PLP.ligand.torsion>
1.9284

> <Gold.PLP.Chemscore.Hbond>
2.4881

> <Gold.PLP.Chemscore.CHOScore>
0.0000

> <Gold.PLP.Chemscore.Metal>
0.0000

> <Gold.Chemscore.Hbonds>
donor molecule, donor type, donor heavy atom, donor atom, acceptor molecule, acceptor atom, score
      L1  H    10    30       P1  2232  0.56
      L1  H    13    31       P1  2232  0.96
      P1  H  4724  9546       L1    15  0.45
      P1  H  4726  9604       L1    16  0.52

> <Gold.PLP.Chemscore.Internal.Correction>
3.2693

> <Gold.Protein.RotatedTorsions>
[ 6459 1704 1703 1701 ] final  170.60 input   60.01 | X-H torsion
[ 6656 1882 1881 1878 ] final   25.64 input   60.00 | X-H torsion
[ 7002 2256 2255 2252 ] final  125.31 input   60.00 | X-H torsion
[ 6986 2270 2269 2268 ] final -147.41 input   59.99 | X-H torsion
[ 9089 4362 4361 4358 ] final  -74.64 input   60.01 | X-H torsion
[ 9191 4472 4471 4469 ] final  161.32 input   60.00 | X-H torsion
[ 9201 4474 4473 4471 ] final   75.68 input   60.00 | X-H torsion
[ 9219 4506 4505 4504 ] final    4.47 input   60.00 | X-H torsion
[ 9220 4508 4507 4505 ] final -147.85 input   60.00 | X-H torsion
[ 9214 4510 4509 4507 ] final  171.66 input   60.00 | X-H torsion

> <Gold.Protein.ActiveResidues>
 TYR305  THR331  LEU332  MET333  LEU349  GLY350  MET351  HIS352  GLY353  ASN358 
 VAL372  ARG373  PHE374  ASP375  ASP376  ARG377  VAL378  THR379  GLY380  LYS381 
 LEU382  PHE385  ASN404  GLY508  GLY509  TRP574  ILE651  PRO652  SER653  GLY654 
 GLY655  FAD702  HOH839  HOH865  HOH881  HOH913  HOH945  HOH958  HOH960  HOH966 
 HOH968 

> <Gold.Protein.RotatedAtoms>
   59.7354  -74.3364   -3.2684 H   0  0  0  0  0  0  0  0  0  0  0  0  # atno 6459 bound_to 1704
   62.9162  -66.9339   -4.8834 H   0  0  0  0  0  0  0  0  0  0  0  0  # atno 6656 bound_to 1882
   61.9178  -89.7158   -1.1789 H   0  0  0  0  0  0  0  0  0  0  0  0  # atno 6986 bound_to 2270
   62.5238  -90.6252   -2.4252 H   0  0  0  0  0  0  0  0  0  0  0  0  # atno 6987 bound_to 2270
   63.5569  -89.8679   -1.3733 H   0  0  0  0  0  0  0  0  0  0  0  0  # atno 6988 bound_to 2270
   60.8648  -81.0049   -5.4010 H   0  0  0  0  0  0  0  0  0  0  0  0  # atno 7002 bound_to 2256
   68.4707  -80.9260  -11.7014 H   0  0  0  0  0  0  0  0  0  0  0  0  # atno 9089 bound_to 4362
   52.2279  -69.5817   -8.2646 H   0  0  0  0  0  0  0  0  0  0  0  0  # atno 9191 bound_to 4472
   51.0147  -68.1872   -7.5899 H   0  0  0  0  0  0  0  0  0  0  0  0  # atno 9201 bound_to 4474
   62.9306  -71.4328   -6.8887 H   0  0  0  0  0  0  0  0  0  0  0  0  # atno 9214 bound_to 4510
   65.2035  -72.1577  -11.9421 H   0  0  0  0  0  0  0  0  0  0  0  0  # atno 9219 bound_to 4506
   62.5491  -69.0717  -10.4250 H   0  0  0  0  0  0  0  0  0  0  0  0  # atno 9220 bound_to 4508
   61.2503  -73.7497   -3.1739 LP  0  0  0  0  0  0  0  0  0  0  0  0  # atno 9615 bound_to 1704
   60.0490  -72.8229   -3.7776 LP  0  0  0  0  0  0  0  0  0  0  0  0  # atno 9616 bound_to 1704
   61.6075  -67.4905   -4.0922 LP  0  0  0  0  0  0  0  0  0  0  0  0  # atno 9619 bound_to 1882
   61.8810  -67.9367   -5.6391 LP  0  0  0  0  0  0  0  0  0  0  0  0  # atno 9620 bound_to 1882
   62.2240  -80.1997   -5.7909 LP  0  0  0  0  0  0  0  0  0  0  0  0  # atno 9664 bound_to 2256
   60.7721  -79.4617   -5.9089 LP  0  0  0  0  0  0  0  0  0  0  0  0  # atno 9665 bound_to 2256
   69.3976  -81.4995  -12.9098 LP  0  0  0  0  0  0  0  0  0  0  0  0  # atno 9690 bound_to 4362
   70.0670  -81.1362  -11.4653 LP  0  0  0  0  0  0  0  0  0  0  0  0  # atno 9691 bound_to 4362
   52.9540  -69.5199   -6.8096 LP  0  0  0  0  0  0  0  0  0  0  0  0  # atno 9698 bound_to 4472
   53.7178  -70.2089   -8.0779 LP  0  0  0  0  0  0  0  0  0  0  0  0  # atno 9699 bound_to 4472
   51.4111  -68.2294   -9.1676 LP  0  0  0  0  0  0  0  0  0  0  0  0  # atno 9700 bound_to 4474
   50.7355  -66.8873   -8.5281 LP  0  0  0  0  0  0  0  0  0  0  0  0  # atno 9701 bound_to 4474
   63.5771  -72.1759  -11.9950 LP  0  0  0  0  0  0  0  0  0  0  0  0  # atno 9709 bound_to 4506
   64.3876  -73.4026  -11.2843 LP  0  0  0  0  0  0  0  0  0  0  0  0  # atno 9710 bound_to 4506
   62.7522  -69.9602  -11.7730 LP  0  0  0  0  0  0  0  0  0  0  0  0  # atno 9711 bound_to 4508
   64.0474  -69.5050  -10.8889 LP  0  0  0  0  0  0  0  0  0  0  0  0  # atno 9712 bound_to 4508
   63.8931  -72.0604   -8.0410 LP  0  0  0  0  0  0  0  0  0  0  0  0  # atno 9713 bound_to 4510
   62.2996  -72.4169   -8.0207 LP  0  0  0  0  0  0  0  0  0  0  0  0  # atno 9714 bound_to 4510

$$$$
