C12H12ClN5O4S|Chlorsulfuron|mol|1|dock2
  -GOLD-   2292219373D 1   1.00000     0.00000
 
 35 36  0  0  0  0  0  0  0  0  1 V2000
   66.6523  -73.4020  -14.2733 C   0  0  0  0  0  0  0  0  0  0  0  0
   65.5145  -74.1951  -14.8628 C   0  0  0  0  0  0  0  0  0  0  0  0
   64.6250  -74.7627  -14.0675 N   0  0  0  0  0  0  0  0  0  0  0  0
   63.6198  -75.4633  -14.5851 C   0  0  0  0  0  0  0  0  0  0  0  0
   63.5113  -75.5916  -15.9022 N   0  0  0  0  0  0  0  0  0  0  0  0
   64.4066  -75.0201  -16.6976 C   0  0  0  0  0  0  0  0  0  0  0  0
   65.4056  -74.3169  -16.1746 N   0  0  0  0  0  0  0  0  0  0  0  0
   64.2997  -75.1491  -18.0403 O   0  0  0  0  0  0  0  0  0  0  0  0
   63.0430  -74.5789  -18.4113 C   0  0  0  0  0  0  0  0  0  0  0  0
   62.6876  -76.0586  -13.7510 N   0  0  0  0  0  0  0  0  0  0  0  0
   61.3708  -75.9073  -13.9955 C   0  0  0  0  0  0  0  0  0  0  0  0
   61.0012  -75.2483  -14.9478 O   0  0  0  0  0  0  0  0  0  0  0  0
   60.4638  -76.4865  -13.1840 N   0  0  0  0  0  0  0  0  0  0  0  0
   58.8486  -76.1983  -13.4085 S   0  0  0  0  0  0  0  0  0  0  0  0
   58.2037  -76.6830  -12.2387 O   0  0  0  0  0  0  0  0  0  0  0  0
   58.7589  -74.8707  -13.9070 O   0  0  0  0  0  0  0  0  0  0  0  0
   58.3051  -77.2403  -14.7213 C   0  0  0  0  0  0  0  0  0  0  0  0
   58.3468  -76.7869  -16.0260 C   0  0  0  0  0  0  0  0  0  0  0  0
   57.9202  -77.6043  -17.0563 C   0  0  0  0  0  0  0  0  0  0  0  0
   57.4515  -78.8753  -16.7819 C   0  0  0  0  0  0  0  0  0  0  0  0
   57.4089  -79.3299  -15.4772 C   0  0  0  0  0  0  0  0  0  0  0  0
   57.8417  -78.5149  -14.4466 C   0  0  0  0  0  0  0  0  0  0  0  0
   57.7890  -79.0853  -12.8078 Cl  0  0  0  0  0  0  0  0  0  0  0  0
   67.5015  -74.0618  -14.0956 H   0  0  0  0  0  0  0  0  0  0  0  0
   66.9437  -72.6137  -14.9675 H   0  0  0  0  0  0  0  0  0  0  0  0
   66.3347  -72.9567  -13.3305 H   0  0  0  0  0  0  0  0  0  0  0  0
   62.9115  -74.6601  -19.4903 H   0  0  0  0  0  0  0  0  0  0  0  0
   62.2383  -75.1131  -17.9059 H   0  0  0  0  0  0  0  0  0  0  0  0
   63.0205  -73.5287  -18.1205 H   0  0  0  0  0  0  0  0  0  0  0  0
   62.9825  -76.5844  -12.9911 H   0  0  0  0  0  0  0  0  0  0  0  0
   60.7572  -77.0721  -12.4686 H   0  0  0  0  0  0  0  0  0  0  0  0
   58.7123  -75.7935  -16.2409 H   0  0  0  0  0  0  0  0  0  0  0  0
   57.9530  -77.2495  -18.0758 H   0  0  0  0  0  0  0  0  0  0  0  0
   57.1182  -79.5133  -17.5871 H   0  0  0  0  0  0  0  0  0  0  0  0
   57.0420  -80.3228  -15.2628 H   0  0  0  0  0  0  0  0  0  0  0  0
  1  2  1  0  0  0  0
  2  3  2  0  0  0  0
  3  4  1  0  0  0  0
  4  5  2  0  0  0  0
  5  6  1  0  0  0  0
  6  7  2  0  0  0  0
  2  7  1  0  0  0  0
  6  8  1  0  0  0  0
  8  9  1  0  0  0  0
  4 10  1  0  0  0  0
 10 11  1  0  0  0  0
 11 12  2  0  0  0  0
 11 13  1  0  0  0  0
 13 14  1  0  0  0  0
 14 15  2  0  0  0  0
 14 16  2  0  0  0  0
 14 17  1  0  0  0  0
 17 18  2  0  0  0  0
 18 19  1  0  0  0  0
 19 20  2  0  0  0  0
 20 21  1  0  0  0  0
 21 22  2  0  0  0  0
 17 22  1  0  0  0  0
 22 23  1  0  0  0  0
  1 24  1  0  0  0  0
  1 25  1  0  0  0  0
  1 26  1  0  0  0  0
  9 27  1  0  0  0  0
  9 28  1  0  0  0  0
  9 29  1  0  0  0  0
 10 30  1  0  0  0  0
 13 31  1  0  0  0  0
 18 32  1  0  0  0  0
 19 33  1  0  0  0  0
 20 34  1  0  0  0  0
 21 35  1  0  0  0  0
M  END
> <Gold.Version>
2021.2.0

> <Gold.Id.Protein>
5K6Q|5K6Q_protein|mol2

> <Gold.PLP.Fitness>
26.4897

> <Gold.PLP.PLP>
-19.0196

> <Gold.PLP.part.hbond>
-5.0269

> <Gold.PLP.part.metal>
0.0000

> <Gold.PLP.part.buried>
-3.1266

> <Gold.PLP.part.nonpolar>
-12.9224

> <Gold.PLP.part.repulsive>
0.9352

> <Gold.PLP.ligand.clash>
0.0000

> <Gold.PLP.ligand.torsion>
1.8787

> <Gold.PLP.Chemscore.Hbond>
2.6513

> <Gold.PLP.Chemscore.CHOScore>
0.0000

> <Gold.PLP.Chemscore.Metal>
0.0000

> <Gold.Chemscore.Hbonds>
donor molecule, donor type, donor heavy atom, donor atom, acceptor molecule, acceptor atom, score
      L1  H    10    30       P1  2231  0.96
      L1  H    13    31       P1  2231  0.76
      P1  H  2204  6935       L1    16  0.90
      P1  H  4671  9479       L1    15  0.04

> <Gold.PLP.Chemscore.Internal.Correction>
3.2734

> <Gold.Protein.RotatedTorsions>
[ 6459 1704 1703 1701 ] final  -52.36 input   60.01 | X-H torsion
[ 6656 1882 1881 1878 ] final  162.56 input   60.00 | X-H torsion
[ 7002 2256 2255 2252 ] final  105.38 input   60.00 | X-H torsion
[ 6986 2270 2269 2268 ] final  -94.80 input   59.99 | X-H torsion
[ 9089 4362 4361 4358 ] final  121.29 input   60.01 | X-H torsion
[ 9191 4472 4471 4469 ] final   24.35 input   60.00 | X-H torsion
[ 9201 4474 4473 4471 ] final   10.54 input   60.00 | X-H torsion
[ 9219 4506 4505 4504 ] final  175.72 input   60.00 | X-H torsion
[ 9220 4508 4507 4505 ] final  127.12 input   60.00 | X-H torsion
[ 9214 4510 4509 4507 ] final  -63.70 input   60.00 | X-H torsion

> <Gold.Protein.ActiveResidues>
 TYR305  THR331  LEU332  MET333  LEU349  GLY350  MET351  HIS352  GLY353  ASN358 
 VAL372  ARG373  PHE374  ASP375  ASP376  ARG377  VAL378  THR379  GLY380  LYS381 
 LEU382  PHE385  ASN404  GLY508  GLY509  TRP574  ILE651  PRO652  SER653  GLY654 
 GLY655  FAD702  HOH839  HOH865  HOH881  HOH913  HOH945  HOH958  HOH960  HOH966 
 HOH968 

> <Gold.Protein.RotatedAtoms>
   60.3185  -72.7639   -3.7406 H   0  0  0  0  0  0  0  0  0  0  0  0  # atno 6459 bound_to 1704
   61.6760  -68.0082   -5.4679 H   0  0  0  0  0  0  0  0  0  0  0  0  # atno 6656 bound_to 1882
   61.7377  -90.2020   -1.8501 H   0  0  0  0  0  0  0  0  0  0  0  0  # atno 6986 bound_to 2270
   63.3314  -90.4768   -2.2134 H   0  0  0  0  0  0  0  0  0  0  0  0  # atno 6987 bound_to 2270
   62.9291  -89.5300   -0.9138 H   0  0  0  0  0  0  0  0  0  0  0  0  # atno 6988 bound_to 2270
   61.1736  -81.1023   -5.3957 H   0  0  0  0  0  0  0  0  0  0  0  0  # atno 7002 bound_to 2256
   70.0109  -81.4973  -12.5620 H   0  0  0  0  0  0  0  0  0  0  0  0  # atno 9089 bound_to 4362
   53.2057  -69.6353   -6.8240 H   0  0  0  0  0  0  0  0  0  0  0  0  # atno 9191 bound_to 4472
   51.3895  -68.6426   -8.4072 H   0  0  0  0  0  0  0  0  0  0  0  0  # atno 9201 bound_to 4474
   62.3514  -72.4396   -8.0720 H   0  0  0  0  0  0  0  0  0  0  0  0  # atno 9214 bound_to 4510
   63.6592  -73.0985  -11.4774 H   0  0  0  0  0  0  0  0  0  0  0  0  # atno 9219 bound_to 4506
   62.3260  -69.7344  -11.4795 H   0  0  0  0  0  0  0  0  0  0  0  0  # atno 9220 bound_to 4508
   59.5552  -74.1545   -3.3776 LP  0  0  0  0  0  0  0  0  0  0  0  0  # atno 9615 bound_to 1704
   61.1569  -74.0018   -3.0982 LP  0  0  0  0  0  0  0  0  0  0  0  0  # atno 9616 bound_to 1704
   62.9323  -67.0260   -5.1435 LP  0  0  0  0  0  0  0  0  0  0  0  0  # atno 9619 bound_to 1882
   61.8050  -67.3194   -3.9992 LP  0  0  0  0  0  0  0  0  0  0  0  0  # atno 9620 bound_to 1882
   62.1503  -79.8963   -5.8854 LP  0  0  0  0  0  0  0  0  0  0  0  0  # atno 9664 bound_to 2256
   60.5348  -79.6670   -5.8197 LP  0  0  0  0  0  0  0  0  0  0  0  0  # atno 9665 bound_to 2256
   69.4795  -80.9182  -11.1370 LP  0  0  0  0  0  0  0  0  0  0  0  0  # atno 9690 bound_to 4362
   68.4342  -81.1422  -12.3715 LP  0  0  0  0  0  0  0  0  0  0  0  0  # atno 9691 bound_to 4362
   53.5616  -70.2003   -8.3080 LP  0  0  0  0  0  0  0  0  0  0  0  0  # atno 9698 bound_to 4472
   52.1254  -69.4745   -8.0303 LP  0  0  0  0  0  0  0  0  0  0  0  0  # atno 9699 bound_to 4472
   51.0585  -67.2798   -9.2325 LP  0  0  0  0  0  0  0  0  0  0  0  0  # atno 9700 bound_to 4474
   50.7106  -67.3783   -7.6401 LP  0  0  0  0  0  0  0  0  0  0  0  0  # atno 9701 bound_to 4474
   65.2682  -72.8661  -11.5493 LP  0  0  0  0  0  0  0  0  0  0  0  0  # atno 9709 bound_to 4506
   64.2515  -71.7650  -12.1980 LP  0  0  0  0  0  0  0  0  0  0  0  0  # atno 9710 bound_to 4506
   63.9475  -69.8018  -11.3611 LP  0  0  0  0  0  0  0  0  0  0  0  0  # atno 9711 bound_to 4508
   63.0768  -68.9961  -10.2389 LP  0  0  0  0  0  0  0  0  0  0  0  0  # atno 9712 bound_to 4508
   62.8562  -71.4493   -6.8835 LP  0  0  0  0  0  0  0  0  0  0  0  0  # atno 9713 bound_to 4510
   63.9197  -72.0140   -7.9865 LP  0  0  0  0  0  0  0  0  0  0  0  0  # atno 9714 bound_to 4510

$$$$
