C12H12ClN5O4S|Chlorsulfuron|mol|1|dock40
  -GOLD-   2292219383D 1   1.00000     0.00000
 
 35 36  0  0  0  0  0  0  0  0  1 V2000
   57.6947  -78.1620  -16.2043 C   0  0  0  0  0  0  0  0  0  0  0  0
   58.7838  -77.4008  -15.4931 C   0  0  0  0  0  0  0  0  0  0  0  0
   59.9105  -78.0104  -15.1694 N   0  0  0  0  0  0  0  0  0  0  0  0
   60.8735  -77.3410  -14.5417 C   0  0  0  0  0  0  0  0  0  0  0  0
   60.7009  -76.0593  -14.2408 N   0  0  0  0  0  0  0  0  0  0  0  0
   59.5680  -75.4506  -14.5677 C   0  0  0  0  0  0  0  0  0  0  0  0
   58.6119  -76.1234  -15.1995 N   0  0  0  0  0  0  0  0  0  0  0  0
   59.3884  -74.1447  -14.2622 O   0  0  0  0  0  0  0  0  0  0  0  0
   59.6937  -73.3988  -15.4422 C   0  0  0  0  0  0  0  0  0  0  0  0
   62.0545  -77.9804  -14.2020 N   0  0  0  0  0  0  0  0  0  0  0  0
   62.8861  -78.4178  -15.1682 C   0  0  0  0  0  0  0  0  0  0  0  0
   62.5998  -78.2512  -16.3379 O   0  0  0  0  0  0  0  0  0  0  0  0
   64.0352  -79.0399  -14.8378 N   0  0  0  0  0  0  0  0  0  0  0  0
   64.9954  -79.6886  -16.0208 S   0  0  0  0  0  0  0  0  0  0  0  0
   65.2770  -78.6227  -16.9172 O   0  0  0  0  0  0  0  0  0  0  0  0
   65.9681  -80.4716  -15.3424 O   0  0  0  0  0  0  0  0  0  0  0  0
   64.0106  -80.8318  -16.9307 C   0  0  0  0  0  0  0  0  0  0  0  0
   64.0219  -80.8070  -18.3123 C   0  0  0  0  0  0  0  0  0  0  0  0
   63.2492  -81.7039  -19.0264 C   0  0  0  0  0  0  0  0  0  0  0  0
   62.4645  -82.6255  -18.3590 C   0  0  0  0  0  0  0  0  0  0  0  0
   62.4520  -82.6510  -16.9769 C   0  0  0  0  0  0  0  0  0  0  0  0
   63.2300  -81.7581  -16.2619 C   0  0  0  0  0  0  0  0  0  0  0  0
   63.2152  -81.7899  -14.5263 Cl  0  0  0  0  0  0  0  0  0  0  0  0
   57.0273  -78.6127  -15.4698 H   0  0  0  0  0  0  0  0  0  0  0  0
   57.1291  -77.4794  -16.8385 H   0  0  0  0  0  0  0  0  0  0  0  0
   58.1400  -78.9444  -16.8188 H   0  0  0  0  0  0  0  0  0  0  0  0
   59.5625  -72.3351  -15.2436 H   0  0  0  0  0  0  0  0  0  0  0  0
   60.7262  -73.5891  -15.7353 H   0  0  0  0  0  0  0  0  0  0  0  0
   59.0254  -73.7032  -16.2476 H   0  0  0  0  0  0  0  0  0  0  0  0
   62.2830  -78.1134  -13.2687 H   0  0  0  0  0  0  0  0  0  0  0  0
   64.2996  -79.1076  -13.9070 H   0  0  0  0  0  0  0  0  0  0  0  0
   64.6343  -80.0867  -18.8344 H   0  0  0  0  0  0  0  0  0  0  0  0
   63.2583  -81.6842  -20.1062 H   0  0  0  0  0  0  0  0  0  0  0  0
   61.8608  -83.3257  -18.9174 H   0  0  0  0  0  0  0  0  0  0  0  0
   61.8383  -83.3706  -16.4555 H   0  0  0  0  0  0  0  0  0  0  0  0
  1  2  1  0  0  0  0
  2  3  2  0  0  0  0
  3  4  1  0  0  0  0
  4  5  2  0  0  0  0
  5  6  1  0  0  0  0
  6  7  2  0  0  0  0
  2  7  1  0  0  0  0
  6  8  1  0  0  0  0
  8  9  1  0  0  0  0
  4 10  1  0  0  0  0
 10 11  1  0  0  0  0
 11 12  2  0  0  0  0
 11 13  1  0  0  0  0
 13 14  1  0  0  0  0
 14 15  2  0  0  0  0
 14 16  2  0  0  0  0
 14 17  1  0  0  0  0
 17 18  2  0  0  0  0
 18 19  1  0  0  0  0
 19 20  2  0  0  0  0
 20 21  1  0  0  0  0
 21 22  2  0  0  0  0
 17 22  1  0  0  0  0
 22 23  1  0  0  0  0
  1 24  1  0  0  0  0
  1 25  1  0  0  0  0
  1 26  1  0  0  0  0
  9 27  1  0  0  0  0
  9 28  1  0  0  0  0
  9 29  1  0  0  0  0
 10 30  1  0  0  0  0
 13 31  1  0  0  0  0
 18 32  1  0  0  0  0
 19 33  1  0  0  0  0
 20 34  1  0  0  0  0
 21 35  1  0  0  0  0
M  END
> <Gold.Version>
2021.2.0

> <Gold.Id.Protein>
5K6Q|5K6Q_protein|mol2

> <Gold.PLP.Fitness>
27.4199

> <Gold.PLP.PLP>
-15.6039

> <Gold.PLP.part.hbond>
-7.9216

> <Gold.PLP.part.metal>
0.0000

> <Gold.PLP.part.buried>
-3.6951

> <Gold.PLP.part.nonpolar>
-5.0624

> <Gold.PLP.part.repulsive>
0.5189

> <Gold.PLP.ligand.clash>
0.0000

> <Gold.PLP.ligand.torsion>
2.5816

> <Gold.PLP.Chemscore.Hbond>
4.5700

> <Gold.PLP.Chemscore.CHOScore>
0.0000

> <Gold.PLP.Chemscore.Metal>
0.0000

> <Gold.Chemscore.Hbonds>
donor molecule, donor type, donor heavy atom, donor atom, acceptor molecule, acceptor atom, score
      L1  H    10    30       P1  2231  0.85
      L1  H    13    31       P1  2232  0.99
      P1  H  2204  6935       L1     8  0.96
      P1  H  2243  6968       L1    16  0.77
      P1  H  4724  9546       L1    16  1.00

> <Gold.PLP.Chemscore.Internal.Correction>
3.2693

> <Gold.Protein.RotatedTorsions>
[ 6459 1704 1703 1701 ] final  155.62 input   60.01 | X-H torsion
[ 6656 1882 1881 1878 ] final  -60.33 input   60.00 | X-H torsion
[ 7002 2256 2255 2252 ] final   36.37 input   60.00 | X-H torsion
[ 6986 2270 2269 2268 ] final -117.67 input   59.99 | X-H torsion
[ 9089 4362 4361 4358 ] final  -15.48 input   60.01 | X-H torsion
[ 9191 4472 4471 4469 ] final -121.49 input   60.00 | X-H torsion
[ 9201 4474 4473 4471 ] final  -20.72 input   60.00 | X-H torsion
[ 9219 4506 4505 4504 ] final   50.26 input   60.00 | X-H torsion
[ 9220 4508 4507 4505 ] final  101.30 input   60.00 | X-H torsion
[ 9214 4510 4509 4507 ] final  128.81 input   60.00 | X-H torsion

> <Gold.Protein.ActiveResidues>
 TYR305  THR331  LEU332  MET333  LEU349  GLY350  MET351  HIS352  GLY353  ASN358 
 VAL372  ARG373  PHE374  ASP375  ASP376  ARG377  VAL378  THR379  GLY380  LYS381 
 LEU382  PHE385  ASN404  GLY508  GLY509  TRP574  ILE651  PRO652  SER653  GLY654 
 GLY655  FAD702  HOH839  HOH865  HOH881  HOH913  HOH945  HOH958  HOH960  HOH966 
 HOH968 

> <Gold.Protein.RotatedAtoms>
   59.9342  -74.4500   -3.1835 H   0  0  0  0  0  0  0  0  0  0  0  0  # atno 6459 bound_to 1704
   62.0359  -67.1620   -3.9872 H   0  0  0  0  0  0  0  0  0  0  0  0  # atno 6656 bound_to 1882
   61.7205  -89.9791   -1.5434 H   0  0  0  0  0  0  0  0  0  0  0  0  # atno 6986 bound_to 2270
   63.0119  -90.5956   -2.3799 H   0  0  0  0  0  0  0  0  0  0  0  0  # atno 6987 bound_to 2270
   63.2660  -89.6340   -1.0540 H   0  0  0  0  0  0  0  0  0  0  0  0  # atno 6988 bound_to 2270
   62.1106  -80.6609   -5.6249 H   0  0  0  0  0  0  0  0  0  0  0  0  # atno 7002 bound_to 2256
   69.2090  -80.8749  -11.1477 H   0  0  0  0  0  0  0  0  0  0  0  0  # atno 9089 bound_to 4362
   53.2289  -70.1122   -8.5490 H   0  0  0  0  0  0  0  0  0  0  0  0  # atno 9191 bound_to 4472
   51.4445  -68.4864   -8.8838 H   0  0  0  0  0  0  0  0  0  0  0  0  # atno 9201 bound_to 4474
   63.5813  -71.4365   -7.0996 H   0  0  0  0  0  0  0  0  0  0  0  0  # atno 9214 bound_to 4510
   65.2906  -72.7887  -11.5887 H   0  0  0  0  0  0  0  0  0  0  0  0  # atno 9219 bound_to 4506
   62.6221  -69.9134  -11.7145 H   0  0  0  0  0  0  0  0  0  0  0  0  # atno 9220 bound_to 4508
   61.2669  -73.5191   -3.2576 LP  0  0  0  0  0  0  0  0  0  0  0  0  # atno 9615 bound_to 1704
   59.8323  -72.9391   -3.7793 LP  0  0  0  0  0  0  0  0  0  0  0  0  # atno 9616 bound_to 1704
   61.5005  -68.0353   -5.2518 LP  0  0  0  0  0  0  0  0  0  0  0  0  # atno 9619 bound_to 1882
   62.8744  -67.1622   -5.3819 LP  0  0  0  0  0  0  0  0  0  0  0  0  # atno 9620 bound_to 1882
   61.2516  -79.3293   -5.9951 LP  0  0  0  0  0  0  0  0  0  0  0  0  # atno 9664 bound_to 2256
   60.4899  -80.6785   -5.4791 LP  0  0  0  0  0  0  0  0  0  0  0  0  # atno 9665 bound_to 2256
   68.5609  -81.2405  -12.5949 LP  0  0  0  0  0  0  0  0  0  0  0  0  # atno 9690 bound_to 4362
   70.1603  -81.4467  -12.3378 LP  0  0  0  0  0  0  0  0  0  0  0  0  # atno 9691 bound_to 4362
   52.1199  -69.3622   -7.6240 LP  0  0  0  0  0  0  0  0  0  0  0  0  # atno 9698 bound_to 4472
   53.5437  -69.8324   -6.9772 LP  0  0  0  0  0  0  0  0  0  0  0  0  # atno 9699 bound_to 4472
   50.8542  -66.9699   -8.8855 LP  0  0  0  0  0  0  0  0  0  0  0  0  # atno 9700 bound_to 4474
   50.8596  -67.8456   -7.5071 LP  0  0  0  0  0  0  0  0  0  0  0  0  # atno 9701 bound_to 4474
   64.1636  -71.7817  -12.1919 LP  0  0  0  0  0  0  0  0  0  0  0  0  # atno 9709 bound_to 4506
   63.7133  -73.1613  -11.4432 LP  0  0  0  0  0  0  0  0  0  0  0  0  # atno 9710 bound_to 4506
   64.0546  -69.5872  -11.0148 LP  0  0  0  0  0  0  0  0  0  0  0  0  # atno 9711 bound_to 4508
   62.6716  -69.0304  -10.3485 LP  0  0  0  0  0  0  0  0  0  0  0  0  # atno 9712 bound_to 4508
   63.4180  -72.4232   -8.3832 LP  0  0  0  0  0  0  0  0  0  0  0  0  # atno 9713 bound_to 4510
   62.1194  -72.0503   -7.4661 LP  0  0  0  0  0  0  0  0  0  0  0  0  # atno 9714 bound_to 4510

$$$$
