C12H12ClN5O4S|Chlorsulfuron|mol|1|dock25
  -GOLD-   2292219383D 1   1.00000     0.00000
 
 35 36  0  0  0  0  0  0  0  0  1 V2000
   68.4324  -72.5037  -17.1406 C   0  0  0  0  0  0  0  0  0  0  0  0
   68.1828  -73.3926  -15.9495 C   0  0  0  0  0  0  0  0  0  0  0  0
   66.9443  -73.6646  -15.5780 N   0  0  0  0  0  0  0  0  0  0  0  0
   66.7212  -74.4488  -14.5271 C   0  0  0  0  0  0  0  0  0  0  0  0
   67.7447  -74.9580  -13.8516 N   0  0  0  0  0  0  0  0  0  0  0  0
   68.9871  -74.6825  -14.2279 C   0  0  0  0  0  0  0  0  0  0  0  0
   69.2034  -73.9027  -15.2819 N   0  0  0  0  0  0  0  0  0  0  0  0
   70.0327  -75.1991  -13.5417 O   0  0  0  0  0  0  0  0  0  0  0  0
   70.9018  -75.7998  -14.5039 C   0  0  0  0  0  0  0  0  0  0  0  0
   65.4226  -74.7335  -14.1374 N   0  0  0  0  0  0  0  0  0  0  0  0
   64.7355  -75.7176  -14.7506 C   0  0  0  0  0  0  0  0  0  0  0  0
   65.2552  -76.3553  -15.6456 O   0  0  0  0  0  0  0  0  0  0  0  0
   63.4721  -75.9946  -14.3717 N   0  0  0  0  0  0  0  0  0  0  0  0
   62.5843  -77.1160  -15.2063 S   0  0  0  0  0  0  0  0  0  0  0  0
   63.4762  -78.1872  -15.4819 O   0  0  0  0  0  0  0  0  0  0  0  0
   61.3521  -77.2305  -14.5077 O   0  0  0  0  0  0  0  0  0  0  0  0
   62.1836  -76.4120  -16.7711 C   0  0  0  0  0  0  0  0  0  0  0  0
   62.6764  -76.9794  -17.9308 C   0  0  0  0  0  0  0  0  0  0  0  0
   62.3622  -76.4271  -19.1587 C   0  0  0  0  0  0  0  0  0  0  0  0
   61.5554  -75.3068  -19.2271 C   0  0  0  0  0  0  0  0  0  0  0  0
   61.0622  -74.7380  -18.0678 C   0  0  0  0  0  0  0  0  0  0  0  0
   61.3710  -75.2941  -16.8393 C   0  0  0  0  0  0  0  0  0  0  0  0
   60.7515  -74.5806  -15.3829 Cl  0  0  0  0  0  0  0  0  0  0  0  0
   68.4962  -71.4662  -16.8128 H   0  0  0  0  0  0  0  0  0  0  0  0
   69.3684  -72.7918  -17.6192 H   0  0  0  0  0  0  0  0  0  0  0  0
   67.6130  -72.6103  -17.8515 H   0  0  0  0  0  0  0  0  0  0  0  0
   71.7636  -76.2319  -13.9953 H   0  0  0  0  0  0  0  0  0  0  0  0
   70.3653  -76.5832  -15.0391 H   0  0  0  0  0  0  0  0  0  0  0  0
   71.2395  -75.0424  -15.2113 H   0  0  0  0  0  0  0  0  0  0  0  0
   65.0078  -74.2246  -13.4233 H   0  0  0  0  0  0  0  0  0  0  0  0
   63.0829  -75.5372  -13.6100 H   0  0  0  0  0  0  0  0  0  0  0  0
   63.3074  -77.8544  -17.8779 H   0  0  0  0  0  0  0  0  0  0  0  0
   62.7475  -76.8709  -20.0647 H   0  0  0  0  0  0  0  0  0  0  0  0
   61.3106  -74.8757  -20.1866 H   0  0  0  0  0  0  0  0  0  0  0  0
   60.4326  -73.8623  -18.1213 H   0  0  0  0  0  0  0  0  0  0  0  0
  1  2  1  0  0  0  0
  2  3  2  0  0  0  0
  3  4  1  0  0  0  0
  4  5  2  0  0  0  0
  5  6  1  0  0  0  0
  6  7  2  0  0  0  0
  2  7  1  0  0  0  0
  6  8  1  0  0  0  0
  8  9  1  0  0  0  0
  4 10  1  0  0  0  0
 10 11  1  0  0  0  0
 11 12  2  0  0  0  0
 11 13  1  0  0  0  0
 13 14  1  0  0  0  0
 14 15  2  0  0  0  0
 14 16  2  0  0  0  0
 14 17  1  0  0  0  0
 17 18  2  0  0  0  0
 18 19  1  0  0  0  0
 19 20  2  0  0  0  0
 20 21  1  0  0  0  0
 21 22  2  0  0  0  0
 17 22  1  0  0  0  0
 22 23  1  0  0  0  0
  1 24  1  0  0  0  0
  1 25  1  0  0  0  0
  1 26  1  0  0  0  0
  9 27  1  0  0  0  0
  9 28  1  0  0  0  0
  9 29  1  0  0  0  0
 10 30  1  0  0  0  0
 13 31  1  0  0  0  0
 18 32  1  0  0  0  0
 19 33  1  0  0  0  0
 20 34  1  0  0  0  0
 21 35  1  0  0  0  0
M  END
> <Gold.Version>
2021.2.0

> <Gold.Id.Protein>
5K6Q|5K6Q_protein|mol2

> <Gold.PLP.Fitness>
32.1050

> <Gold.PLP.PLP>
-32.6802

> <Gold.PLP.part.hbond>
-1.0048

> <Gold.PLP.part.metal>
0.0000

> <Gold.PLP.part.buried>
-7.6830

> <Gold.PLP.part.nonpolar>
-24.2769

> <Gold.PLP.part.repulsive>
0.4843

> <Gold.PLP.ligand.clash>
0.0000

> <Gold.PLP.ligand.torsion>
2.3585

> <Gold.PLP.Chemscore.Hbond>
0.2908

> <Gold.PLP.Chemscore.CHOScore>
0.0000

> <Gold.PLP.Chemscore.Metal>
0.0000

> <Gold.Chemscore.Hbonds>
donor molecule, donor type, donor heavy atom, donor atom, acceptor molecule, acceptor atom, score
      P1  H  2240  6967       L1     5  0.29

> <Gold.PLP.Chemscore.Internal.Correction>
3.2693

> <Gold.Protein.RotatedTorsions>
[ 6459 1704 1703 1701 ] final   55.00 input   60.01 | X-H torsion
[ 6656 1882 1881 1878 ] final   39.15 input   60.00 | X-H torsion
[ 7002 2256 2255 2252 ] final  -25.40 input   60.00 | X-H torsion
[ 6986 2270 2269 2268 ] final   12.11 input   59.99 | X-H torsion
[ 9089 4362 4361 4358 ] final -107.66 input   60.01 | X-H torsion
[ 9191 4472 4471 4469 ] final    7.03 input   60.00 | X-H torsion
[ 9201 4474 4473 4471 ] final   71.62 input   60.00 | X-H torsion
[ 9219 4506 4505 4504 ] final  -73.86 input   60.00 | X-H torsion
[ 9220 4508 4507 4505 ] final   51.54 input   60.00 | X-H torsion
[ 9214 4510 4509 4507 ] final  137.49 input   60.00 | X-H torsion

> <Gold.Protein.ActiveResidues>
 TYR305  THR331  LEU332  MET333  LEU349  GLY350  MET351  HIS352  GLY353  ASN358 
 VAL372  ARG373  PHE374  ASP375  ASP376  ARG377  VAL378  THR379  GLY380  LYS381 
 LEU382  PHE385  ASN404  GLY508  GLY509  TRP574  ILE651  PRO652  SER653  GLY654 
 GLY655  FAD702  HOH839  HOH865  HOH881  HOH913  HOH945  HOH958  HOH960  HOH966 
 HOH968 

> <Gold.Protein.RotatedAtoms>
   61.2269  -73.8146   -3.1517 H   0  0  0  0  0  0  0  0  0  0  0  0  # atno 6459 bound_to 1704
   62.9312  -67.0080   -5.0902 H   0  0  0  0  0  0  0  0  0  0  0  0  # atno 6656 bound_to 1882
   63.1582  -90.5540   -2.3217 H   0  0  0  0  0  0  0  0  0  0  0  0  # atno 6986 bound_to 2270
   63.1305  -89.5801   -0.9807 H   0  0  0  0  0  0  0  0  0  0  0  0  # atno 6987 bound_to 2270
   61.7091  -90.0748   -1.6752 H   0  0  0  0  0  0  0  0  0  0  0  0  # atno 6988 bound_to 2270
   62.0608  -79.7489   -5.9241 H   0  0  0  0  0  0  0  0  0  0  0  0  # atno 7002 bound_to 2256
   68.3970  -81.0819  -12.2048 H   0  0  0  0  0  0  0  0  0  0  0  0  # atno 9089 bound_to 4362
   53.4400  -69.7652   -6.9121 H   0  0  0  0  0  0  0  0  0  0  0  0  # atno 9191 bound_to 4472
   51.0422  -68.2407   -7.6179 H   0  0  0  0  0  0  0  0  0  0  0  0  # atno 9201 bound_to 4474
   63.4628  -71.4103   -7.0265 H   0  0  0  0  0  0  0  0  0  0  0  0  # atno 9214 bound_to 4510
   64.1003  -71.8035  -12.1796 H   0  0  0  0  0  0  0  0  0  0  0  0  # atno 9219 bound_to 4506
   63.4018  -70.0152  -11.7626 H   0  0  0  0  0  0  0  0  0  0  0  0  # atno 9220 bound_to 4508
   60.1170  -72.7991   -3.7722 LP  0  0  0  0  0  0  0  0  0  0  0  0  # atno 9615 bound_to 1704
   59.6802  -74.2990   -3.2966 LP  0  0  0  0  0  0  0  0  0  0  0  0  # atno 9616 bound_to 1704
   61.7623  -67.3534   -4.0120 LP  0  0  0  0  0  0  0  0  0  0  0  0  # atno 9619 bound_to 1882
   61.7110  -67.9991   -5.5110 LP  0  0  0  0  0  0  0  0  0  0  0  0  # atno 9620 bound_to 1882
   60.4424  -79.8079   -5.7647 LP  0  0  0  0  0  0  0  0  0  0  0  0  # atno 9664 bound_to 2256
   61.3492  -81.1184   -5.4082 LP  0  0  0  0  0  0  0  0  0  0  0  0  # atno 9665 bound_to 2256
   69.8873  -81.5163  -12.6931 LP  0  0  0  0  0  0  0  0  0  0  0  0  # atno 9690 bound_to 4362
   69.6515  -80.9625  -11.1751 LP  0  0  0  0  0  0  0  0  0  0  0  0  # atno 9691 bound_to 4362
   53.3487  -70.1530   -8.4898 LP  0  0  0  0  0  0  0  0  0  0  0  0  # atno 9698 bound_to 4472
   52.1024  -69.3910   -7.7599 LP  0  0  0  0  0  0  0  0  0  0  0  0  # atno 9699 bound_to 4472
   51.3989  -68.1750   -9.2043 LP  0  0  0  0  0  0  0  0  0  0  0  0  # atno 9700 bound_to 4474
   50.7200  -66.8880   -8.4631 LP  0  0  0  0  0  0  0  0  0  0  0  0  # atno 9701 bound_to 4474
   63.7621  -73.2018  -11.4189 LP  0  0  0  0  0  0  0  0  0  0  0  0  # atno 9709 bound_to 4506
   65.3134  -72.7335  -11.6212 LP  0  0  0  0  0  0  0  0  0  0  0  0  # atno 9710 bound_to 4506
   63.7451  -69.1705  -10.4147 LP  0  0  0  0  0  0  0  0  0  0  0  0  # atno 9711 bound_to 4508
   62.1957  -69.3446  -10.9002 LP  0  0  0  0  0  0  0  0  0  0  0  0  # atno 9712 bound_to 4508
   63.5414  -72.3644   -8.3424 LP  0  0  0  0  0  0  0  0  0  0  0  0  # atno 9713 bound_to 4510
   62.1154  -72.1354   -7.5804 LP  0  0  0  0  0  0  0  0  0  0  0  0  # atno 9714 bound_to 4510

$$$$
