C12H12ClN5O4S|Chlorsulfuron|mol|1|dock4
  -GOLD-   2292219373D 1   1.00000     0.00000
 
 35 36  0  0  0  0  0  0  0  0  1 V2000
   58.5663  -77.0524  -17.2191 C   0  0  0  0  0  0  0  0  0  0  0  0
   59.5216  -76.5556  -16.1647 C   0  0  0  0  0  0  0  0  0  0  0  0
   60.5072  -77.3317  -15.7499 N   0  0  0  0  0  0  0  0  0  0  0  0
   61.3518  -76.8959  -14.8194 C   0  0  0  0  0  0  0  0  0  0  0  0
   61.2032  -75.6796  -14.3077 N   0  0  0  0  0  0  0  0  0  0  0  0
   60.2121  -74.9031  -14.7269 C   0  0  0  0  0  0  0  0  0  0  0  0
   59.3749  -75.3424  -15.6607 N   0  0  0  0  0  0  0  0  0  0  0  0
   60.0571  -73.6633  -14.2075 O   0  0  0  0  0  0  0  0  0  0  0  0
   59.3962  -72.8785  -15.2020 C   0  0  0  0  0  0  0  0  0  0  0  0
   62.3849  -77.7099  -14.3843 N   0  0  0  0  0  0  0  0  0  0  0  0
   63.1349  -78.3832  -15.2791 C   0  0  0  0  0  0  0  0  0  0  0  0
   62.9048  -78.2762  -16.4680 O   0  0  0  0  0  0  0  0  0  0  0  0
   64.1399  -79.1753  -14.8559 N   0  0  0  0  0  0  0  0  0  0  0  0
   64.9798  -80.0995  -15.9433 S   0  0  0  0  0  0  0  0  0  0  0  0
   65.2075  -79.2613  -17.0679 O   0  0  0  0  0  0  0  0  0  0  0  0
   65.9891  -80.7590  -15.1912 O   0  0  0  0  0  0  0  0  0  0  0  0
   63.8946  -81.3692  -16.5046 C   0  0  0  0  0  0  0  0  0  0  0  0
   63.5782  -81.4647  -17.8464 C   0  0  0  0  0  0  0  0  0  0  0  0
   62.7266  -82.4608  -18.2869 C   0  0  0  0  0  0  0  0  0  0  0  0
   62.1909  -83.3614  -17.3856 C   0  0  0  0  0  0  0  0  0  0  0  0
   62.5064  -83.2667  -16.0431 C   0  0  0  0  0  0  0  0  0  0  0  0
   63.3635  -82.2742  -15.6026 C   0  0  0  0  0  0  0  0  0  0  0  0
   63.7605  -82.1549  -13.9168 Cl  0  0  0  0  0  0  0  0  0  0  0  0
   57.7260  -77.5551  -16.7403 H   0  0  0  0  0  0  0  0  0  0  0  0
   58.1997  -76.2086  -17.8038 H   0  0  0  0  0  0  0  0  0  0  0  0
   59.0823  -77.7528  -17.8759 H   0  0  0  0  0  0  0  0  0  0  0  0
   59.2486  -71.8658  -14.8268 H   0  0  0  0  0  0  0  0  0  0  0  0
   60.0066  -72.8463  -16.1044 H   0  0  0  0  0  0  0  0  0  0  0  0
   58.4290  -73.3247  -15.4335 H   0  0  0  0  0  0  0  0  0  0  0  0
   62.5685  -77.7954  -13.4356 H   0  0  0  0  0  0  0  0  0  0  0  0
   64.3712  -79.2038  -13.9143 H   0  0  0  0  0  0  0  0  0  0  0  0
   63.9959  -80.7608  -18.5510 H   0  0  0  0  0  0  0  0  0  0  0  0
   62.4796  -82.5351  -19.3357 H   0  0  0  0  0  0  0  0  0  0  0  0
   61.5255  -84.1392  -17.7303 H   0  0  0  0  0  0  0  0  0  0  0  0
   62.0871  -83.9700  -15.3388 H   0  0  0  0  0  0  0  0  0  0  0  0
  1  2  1  0  0  0  0
  2  3  2  0  0  0  0
  3  4  1  0  0  0  0
  4  5  2  0  0  0  0
  5  6  1  0  0  0  0
  6  7  2  0  0  0  0
  2  7  1  0  0  0  0
  6  8  1  0  0  0  0
  8  9  1  0  0  0  0
  4 10  1  0  0  0  0
 10 11  1  0  0  0  0
 11 12  2  0  0  0  0
 11 13  1  0  0  0  0
 13 14  1  0  0  0  0
 14 15  2  0  0  0  0
 14 16  2  0  0  0  0
 14 17  1  0  0  0  0
 17 18  2  0  0  0  0
 18 19  1  0  0  0  0
 19 20  2  0  0  0  0
 20 21  1  0  0  0  0
 21 22  2  0  0  0  0
 17 22  1  0  0  0  0
 22 23  1  0  0  0  0
  1 24  1  0  0  0  0
  1 25  1  0  0  0  0
  1 26  1  0  0  0  0
  9 27  1  0  0  0  0
  9 28  1  0  0  0  0
  9 29  1  0  0  0  0
 10 30  1  0  0  0  0
 13 31  1  0  0  0  0
 18 32  1  0  0  0  0
 19 33  1  0  0  0  0
 20 34  1  0  0  0  0
 21 35  1  0  0  0  0
M  END
> <Gold.Version>
2021.2.0

> <Gold.Id.Protein>
5K6Q|5K6Q_protein|mol2

> <Gold.PLP.Fitness>
30.0155

> <Gold.PLP.PLP>
-15.3917

> <Gold.PLP.part.hbond>
-8.0299

> <Gold.PLP.part.metal>
0.0000

> <Gold.PLP.part.buried>
-4.1500

> <Gold.PLP.part.nonpolar>
-5.8418

> <Gold.PLP.part.repulsive>
0.6031

> <Gold.PLP.ligand.clash>
0.0000

> <Gold.PLP.ligand.torsion>
2.2949

> <Gold.PLP.Chemscore.Hbond>
5.3134

> <Gold.PLP.Chemscore.CHOScore>
0.0000

> <Gold.PLP.Chemscore.Metal>
0.0000

> <Gold.Chemscore.Hbonds>
donor molecule, donor type, donor heavy atom, donor atom, acceptor molecule, acceptor atom, score
      L1  H    10    30       P1  2231  1.00
      L1  H    13    31       P1  2232  0.99
      P1  H  2204  6935       L1     8  0.83
      P1  H  2205  6946       L1     8  0.55
      P1  H  2243  6968       L1    16  0.94
      P1  H  4724  9546       L1    16  1.00

> <Gold.PLP.Chemscore.Internal.Correction>
3.2734

> <Gold.Protein.RotatedTorsions>
[ 6459 1704 1703 1701 ] final -121.35 input   60.01 | X-H torsion
[ 6656 1882 1881 1878 ] final -139.24 input   60.00 | X-H torsion
[ 7002 2256 2255 2252 ] final   55.09 input   60.00 | X-H torsion
[ 6986 2270 2269 2268 ] final   85.83 input   59.99 | X-H torsion
[ 9089 4362 4361 4358 ] final  -64.37 input   60.01 | X-H torsion
[ 9191 4472 4471 4469 ] final   65.68 input   60.00 | X-H torsion
[ 9201 4474 4473 4471 ] final  -55.44 input   60.00 | X-H torsion
[ 9219 4506 4505 4504 ] final  -67.90 input   60.00 | X-H torsion
[ 9220 4508 4507 4505 ] final   87.24 input   60.00 | X-H torsion
[ 9214 4510 4509 4507 ] final  -88.45 input   60.00 | X-H torsion

> <Gold.Protein.ActiveResidues>
 TYR305  THR331  LEU332  MET333  LEU349  GLY350  MET351  HIS352  GLY353  ASN358 
 VAL372  ARG373  PHE374  ASP375  ASP376  ARG377  VAL378  THR379  GLY380  LYS381 
 LEU382  PHE385  ASN404  GLY508  GLY509  TRP574  ILE651  PRO652  SER653  GLY654 
 GLY655  FAD702  HOH839  HOH865  HOH881  HOH913  HOH945  HOH958  HOH960  HOH966 
 HOH968 

> <Gold.Protein.RotatedAtoms>
   59.4772  -73.4059   -3.6748 H   0  0  0  0  0  0  0  0  0  0  0  0  # atno 6459 bound_to 1704
   61.3450  -67.8889   -4.6280 H   0  0  0  0  0  0  0  0  0  0  0  0  # atno 6656 bound_to 1882
   63.5918  -89.9312   -1.4601 H   0  0  0  0  0  0  0  0  0  0  0  0  # atno 6986 bound_to 2270
   61.9932  -89.6670   -1.1108 H   0  0  0  0  0  0  0  0  0  0  0  0  # atno 6987 bound_to 2270
   62.4132  -90.6109   -2.4069 H   0  0  0  0  0  0  0  0  0  0  0  0  # atno 6988 bound_to 2270
   61.9267  -80.8861   -5.5338 H   0  0  0  0  0  0  0  0  0  0  0  0  # atno 7002 bound_to 2256
   68.5526  -80.8931  -11.5589 H   0  0  0  0  0  0  0  0  0  0  0  0  # atno 9089 bound_to 4362
   52.6022  -69.3937   -6.9418 H   0  0  0  0  0  0  0  0  0  0  0  0  # atno 9191 bound_to 4472
   51.3734  -68.0727   -9.2523 H   0  0  0  0  0  0  0  0  0  0  0  0  # atno 9201 bound_to 4474
   62.1594  -72.2606   -7.7683 H   0  0  0  0  0  0  0  0  0  0  0  0  # atno 9214 bound_to 4510
   64.1943  -71.7798  -12.1892 H   0  0  0  0  0  0  0  0  0  0  0  0  # atno 9219 bound_to 4506
   62.8295  -69.9790  -11.7867 H   0  0  0  0  0  0  0  0  0  0  0  0  # atno 9220 bound_to 4508
   60.5126  -74.4934   -3.0478 LP  0  0  0  0  0  0  0  0  0  0  0  0  # atno 9615 bound_to 1704
   61.0467  -73.0163   -3.4943 LP  0  0  0  0  0  0  0  0  0  0  0  0  # atno 9616 bound_to 1704
   62.4903  -67.5663   -5.7381 LP  0  0  0  0  0  0  0  0  0  0  0  0  # atno 9619 bound_to 1882
   62.5803  -66.8991   -4.2504 LP  0  0  0  0  0  0  0  0  0  0  0  0  # atno 9620 bound_to 1882
   61.5548  -79.3742   -6.0069 LP  0  0  0  0  0  0  0  0  0  0  0  0  # atno 9664 bound_to 2256
   60.3718  -80.4069   -5.5591 LP  0  0  0  0  0  0  0  0  0  0  0  0  # atno 9665 bound_to 2256
   69.2313  -81.4724  -12.9198 LP  0  0  0  0  0  0  0  0  0  0  0  0  # atno 9690 bound_to 4362
   70.1509  -81.1964  -11.5989 LP  0  0  0  0  0  0  0  0  0  0  0  0  # atno 9691 bound_to 4362
   53.8251  -70.1550   -7.6987 LP  0  0  0  0  0  0  0  0  0  0  0  0  # atno 9698 bound_to 4472
   52.4698  -69.7632   -8.5210 LP  0  0  0  0  0  0  0  0  0  0  0  0  # atno 9699 bound_to 4472
   50.6971  -66.8996   -8.3499 LP  0  0  0  0  0  0  0  0  0  0  0  0  # atno 9700 bound_to 4474
   51.0883  -68.3325   -7.6715 LP  0  0  0  0  0  0  0  0  0  0  0  0  # atno 9701 bound_to 4474
   63.6927  -73.1424  -11.4545 LP  0  0  0  0  0  0  0  0  0  0  0  0  # atno 9709 bound_to 4506
   65.2882  -72.8167  -11.5760 LP  0  0  0  0  0  0  0  0  0  0  0  0  # atno 9710 bound_to 4506
   64.0338  -69.4609  -10.8227 LP  0  0  0  0  0  0  0  0  0  0  0  0  # atno 9711 bound_to 4508
   62.4834  -69.0907  -10.4679 LP  0  0  0  0  0  0  0  0  0  0  0  0  # atno 9712 bound_to 4508
   63.2534  -71.3929   -6.9327 LP  0  0  0  0  0  0  0  0  0  0  0  0  # atno 9713 bound_to 4510
   63.7159  -72.2506   -8.2431 LP  0  0  0  0  0  0  0  0  0  0  0  0  # atno 9714 bound_to 4510

$$$$
