C12H12ClN5O4S|Chlorsulfuron|mol|1|dock41
  -GOLD-   2292219383D 1   1.00000     0.00000
 
 35 36  0  0  0  0  0  0  0  0  1 V2000
   63.4768  -74.6298  -18.1103 C   0  0  0  0  0  0  0  0  0  0  0  0
   62.6287  -75.2556  -17.0331 C   0  0  0  0  0  0  0  0  0  0  0  0
   63.1191  -76.2344  -16.2934 N   0  0  0  0  0  0  0  0  0  0  0  0
   62.3728  -76.7886  -15.3420 C   0  0  0  0  0  0  0  0  0  0  0  0
   61.1340  -76.3568  -15.1366 N   0  0  0  0  0  0  0  0  0  0  0  0
   60.6451  -75.3736  -15.8816 C   0  0  0  0  0  0  0  0  0  0  0  0
   61.3976  -74.8204  -16.8269 N   0  0  0  0  0  0  0  0  0  0  0  0
   59.3830  -74.9313  -15.6756 O   0  0  0  0  0  0  0  0  0  0  0  0
   59.4815  -73.5495  -15.3250 C   0  0  0  0  0  0  0  0  0  0  0  0
   62.8871  -77.8151  -14.5668 N   0  0  0  0  0  0  0  0  0  0  0  0
   63.6208  -78.7896  -15.1399 C   0  0  0  0  0  0  0  0  0  0  0  0
   63.8312  -78.7680  -16.3370 O   0  0  0  0  0  0  0  0  0  0  0  0
   64.1211  -79.7884  -14.3857 N   0  0  0  0  0  0  0  0  0  0  0  0
   64.9146  -81.0515  -15.1051 S   0  0  0  0  0  0  0  0  0  0  0  0
   66.1377  -80.5138  -15.5888 O   0  0  0  0  0  0  0  0  0  0  0  0
   64.7955  -82.1449  -14.2054 O   0  0  0  0  0  0  0  0  0  0  0  0
   63.9926  -81.5064  -16.5360 C   0  0  0  0  0  0  0  0  0  0  0  0
   64.6259  -81.6200  -17.7590 C   0  0  0  0  0  0  0  0  0  0  0  0
   63.9025  -81.9768  -18.8819 C   0  0  0  0  0  0  0  0  0  0  0  0
   62.5455  -82.2198  -18.7821 C   0  0  0  0  0  0  0  0  0  0  0  0
   61.9108  -82.1062  -17.5593 C   0  0  0  0  0  0  0  0  0  0  0  0
   62.6353  -81.7554  -16.4343 C   0  0  0  0  0  0  0  0  0  0  0  0
   61.8389  -81.6130  -14.8982 Cl  0  0  0  0  0  0  0  0  0  0  0  0
   63.3292  -75.1671  -19.0470 H   0  0  0  0  0  0  0  0  0  0  0  0
   63.1878  -73.5868  -18.2402 H   0  0  0  0  0  0  0  0  0  0  0  0
   64.5268  -74.6828  -17.8226 H   0  0  0  0  0  0  0  0  0  0  0  0
   58.4839  -73.1474  -15.1486 H   0  0  0  0  0  0  0  0  0  0  0  0
   60.0803  -73.4462  -14.4201 H   0  0  0  0  0  0  0  0  0  0  0  0
   59.9557  -73.0011  -16.1389 H   0  0  0  0  0  0  0  0  0  0  0  0
   62.7192  -77.8325  -13.6116 H   0  0  0  0  0  0  0  0  0  0  0  0
   64.0165  -79.7673  -13.4217 H   0  0  0  0  0  0  0  0  0  0  0  0
   65.6861  -81.4295  -17.8377 H   0  0  0  0  0  0  0  0  0  0  0  0
   64.3979  -82.0655  -19.8375 H   0  0  0  0  0  0  0  0  0  0  0  0
   61.9809  -82.4983  -19.6597 H   0  0  0  0  0  0  0  0  0  0  0  0
   60.8503  -82.2953  -17.4816 H   0  0  0  0  0  0  0  0  0  0  0  0
  1  2  1  0  0  0  0
  2  3  2  0  0  0  0
  3  4  1  0  0  0  0
  4  5  2  0  0  0  0
  5  6  1  0  0  0  0
  6  7  2  0  0  0  0
  2  7  1  0  0  0  0
  6  8  1  0  0  0  0
  8  9  1  0  0  0  0
  4 10  1  0  0  0  0
 10 11  1  0  0  0  0
 11 12  2  0  0  0  0
 11 13  1  0  0  0  0
 13 14  1  0  0  0  0
 14 15  2  0  0  0  0
 14 16  2  0  0  0  0
 14 17  1  0  0  0  0
 17 18  2  0  0  0  0
 18 19  1  0  0  0  0
 19 20  2  0  0  0  0
 20 21  1  0  0  0  0
 21 22  2  0  0  0  0
 17 22  1  0  0  0  0
 22 23  1  0  0  0  0
  1 24  1  0  0  0  0
  1 25  1  0  0  0  0
  1 26  1  0  0  0  0
  9 27  1  0  0  0  0
  9 28  1  0  0  0  0
  9 29  1  0  0  0  0
 10 30  1  0  0  0  0
 13 31  1  0  0  0  0
 18 32  1  0  0  0  0
 19 33  1  0  0  0  0
 20 34  1  0  0  0  0
 21 35  1  0  0  0  0
M  END
> <Gold.Version>
2021.2.0

> <Gold.Id.Protein>
5K6Q|5K6Q_protein|mol2

> <Gold.PLP.Fitness>
20.3082

> <Gold.PLP.PLP>
-13.8777

> <Gold.PLP.part.hbond>
-6.3081

> <Gold.PLP.part.metal>
0.0000

> <Gold.PLP.part.buried>
-1.9243

> <Gold.PLP.part.nonpolar>
-8.1178

> <Gold.PLP.part.repulsive>
0.5495

> <Gold.PLP.ligand.clash>
0.0000

> <Gold.PLP.ligand.torsion>
1.9926

> <Gold.PLP.Chemscore.Hbond>
2.3821

> <Gold.PLP.Chemscore.CHOScore>
0.0000

> <Gold.PLP.Chemscore.Metal>
0.0000

> <Gold.Chemscore.Hbonds>
donor molecule, donor type, donor heavy atom, donor atom, acceptor molecule, acceptor atom, score
      L1  H    10    30       P1  2231  0.75
      L1  H    13    31       P1  2232  0.83
      P1  H  2243  6968       L1    15  0.56
      P1  H  4726  9604       L1    16  0.24

> <Gold.PLP.Chemscore.Internal.Correction>
3.2693

> <Gold.Protein.RotatedTorsions>
[ 6459 1704 1703 1701 ] final -147.64 input   60.01 | X-H torsion
[ 6656 1882 1881 1878 ] final  -17.08 input   60.00 | X-H torsion
[ 7002 2256 2255 2252 ] final  121.80 input   60.00 | X-H torsion
[ 6986 2270 2269 2268 ] final    8.65 input   59.99 | X-H torsion
[ 9089 4362 4361 4358 ] final   74.59 input   60.01 | X-H torsion
[ 9191 4472 4471 4469 ] final -168.76 input   60.00 | X-H torsion
[ 9201 4474 4473 4471 ] final -106.70 input   60.00 | X-H torsion
[ 9219 4506 4505 4504 ] final  113.97 input   60.00 | X-H torsion
[ 9220 4508 4507 4505 ] final -137.22 input   60.00 | X-H torsion
[ 9214 4510 4509 4507 ] final  -77.65 input   60.00 | X-H torsion

> <Gold.Protein.ActiveResidues>
 TYR305  THR331  LEU332  MET333  LEU349  GLY350  MET351  HIS352  GLY353  ASN358 
 VAL372  ARG373  PHE374  ASP375  ASP376  ARG377  VAL378  THR379  GLY380  LYS381 
 LEU382  PHE385  ASN404  GLY508  GLY509  TRP574  ILE651  PRO652  SER653  GLY654 
 GLY655  FAD702  HOH839  HOH865  HOH881  HOH913  HOH945  HOH958  HOH960  HOH966 
 HOH968 

> <Gold.Protein.RotatedAtoms>
   59.4311  -73.8049   -3.5335 H   0  0  0  0  0  0  0  0  0  0  0  0  # atno 6459 bound_to 1704
   62.6032  -66.8982   -4.2784 H   0  0  0  0  0  0  0  0  0  0  0  0  # atno 6656 bound_to 1882
   63.1079  -90.5704   -2.3446 H   0  0  0  0  0  0  0  0  0  0  0  0  # atno 6986 bound_to 2270
   63.1801  -89.5977   -1.0044 H   0  0  0  0  0  0  0  0  0  0  0  0  # atno 6987 bound_to 2270
   61.7099  -90.0409   -1.6286 H   0  0  0  0  0  0  0  0  0  0  0  0  # atno 6988 bound_to 2270
   60.9164  -81.0293   -5.3974 H   0  0  0  0  0  0  0  0  0  0  0  0  # atno 7002 bound_to 2256
   70.2267  -81.3068  -11.8779 H   0  0  0  0  0  0  0  0  0  0  0  0  # atno 9089 bound_to 4362
   52.5447  -69.8037   -8.5546 H   0  0  0  0  0  0  0  0  0  0  0  0  # atno 9191 bound_to 4472
   51.0793  -67.3180   -9.2465 H   0  0  0  0  0  0  0  0  0  0  0  0  # atno 9201 bound_to 4474
   62.2247  -72.3476   -7.9070 H   0  0  0  0  0  0  0  0  0  0  0  0  # atno 9214 bound_to 4510
   64.5581  -73.3799  -11.2879 H   0  0  0  0  0  0  0  0  0  0  0  0  # atno 9219 bound_to 4506
   62.6958  -69.0311  -10.3418 H   0  0  0  0  0  0  0  0  0  0  0  0  # atno 9220 bound_to 4508
   60.8979  -74.3055   -3.0377 LP  0  0  0  0  0  0  0  0  0  0  0  0  # atno 9615 bound_to 1704
   60.7078  -72.8023   -3.6466 LP  0  0  0  0  0  0  0  0  0  0  0  0  # atno 9616 bound_to 1704
   61.3407  -67.8752   -4.5948 LP  0  0  0  0  0  0  0  0  0  0  0  0  # atno 9619 bound_to 1882
   62.4630  -67.5878   -5.7457 LP  0  0  0  0  0  0  0  0  0  0  0  0  # atno 9620 bound_to 1882
   62.2191  -80.1450   -5.8087 LP  0  0  0  0  0  0  0  0  0  0  0  0  # atno 9664 bound_to 2256
   60.7249  -79.4918   -5.8947 LP  0  0  0  0  0  0  0  0  0  0  0  0  # atno 9665 bound_to 2256
   68.7615  -80.8531  -11.3341 LP  0  0  0  0  0  0  0  0  0  0  0  0  # atno 9690 bound_to 4362
   68.9349  -81.3992  -12.8633 LP  0  0  0  0  0  0  0  0  0  0  0  0  # atno 9691 bound_to 4362
   52.5245  -69.3729   -6.9855 LP  0  0  0  0  0  0  0  0  0  0  0  0  # atno 9698 bound_to 4472
   53.8283  -70.1324   -7.6100 LP  0  0  0  0  0  0  0  0  0  0  0  0  # atno 9699 bound_to 4472
   50.7018  -67.3408   -7.6638 LP  0  0  0  0  0  0  0  0  0  0  0  0  # atno 9700 bound_to 4474
   51.3798  -68.6514   -8.3634 LP  0  0  0  0  0  0  0  0  0  0  0  0  # atno 9701 bound_to 4474
   65.1102  -72.0339  -12.0169 LP  0  0  0  0  0  0  0  0  0  0  0  0  # atno 9709 bound_to 4506
   63.5043  -72.3138  -11.9212 LP  0  0  0  0  0  0  0  0  0  0  0  0  # atno 9710 bound_to 4506
   62.5984  -69.9058  -11.7105 LP  0  0  0  0  0  0  0  0  0  0  0  0  # atno 9711 bound_to 4508
   64.0535  -69.6003  -11.0352 LP  0  0  0  0  0  0  0  0  0  0  0  0  # atno 9712 bound_to 4508
   63.0806  -71.4047   -6.8939 LP  0  0  0  0  0  0  0  0  0  0  0  0  # atno 9713 bound_to 4510
   63.8229  -72.1513   -8.1422 LP  0  0  0  0  0  0  0  0  0  0  0  0  # atno 9714 bound_to 4510

$$$$
