C12H12ClN5O4S|Chlorsulfuron|mol|1|dock21
  -GOLD-   2292219383D 1   1.00000     0.00000
 
 35 36  0  0  0  0  0  0  0  0  1 V2000
   63.3907  -74.7869  -18.3969 C   0  0  0  0  0  0  0  0  0  0  0  0
   63.8443  -75.0306  -16.9805 C   0  0  0  0  0  0  0  0  0  0  0  0
   63.0232  -75.5963  -16.1136 N   0  0  0  0  0  0  0  0  0  0  0  0
   63.4208  -75.8126  -14.8629 C   0  0  0  0  0  0  0  0  0  0  0  0
   64.6443  -75.4593  -14.4866 N   0  0  0  0  0  0  0  0  0  0  0  0
   65.4660  -74.8914  -15.3603 C   0  0  0  0  0  0  0  0  0  0  0  0
   65.0646  -74.6829  -16.6098 N   0  0  0  0  0  0  0  0  0  0  0  0
   66.7132  -74.5295  -14.9804 O   0  0  0  0  0  0  0  0  0  0  0  0
   66.7314  -73.1016  -14.9290 C   0  0  0  0  0  0  0  0  0  0  0  0
   62.5596  -76.4053  -13.9539 N   0  0  0  0  0  0  0  0  0  0  0  0
   61.2278  -76.2447  -14.0841 C   0  0  0  0  0  0  0  0  0  0  0  0
   60.7823  -75.5797  -14.9990 O   0  0  0  0  0  0  0  0  0  0  0  0
   60.3898  -76.8212  -13.1998 N   0  0  0  0  0  0  0  0  0  0  0  0
   58.7633  -76.5220  -13.2840 S   0  0  0  0  0  0  0  0  0  0  0  0
   58.2181  -77.0055  -12.0641 O   0  0  0  0  0  0  0  0  0  0  0  0
   58.6399  -75.1925  -13.7703 O   0  0  0  0  0  0  0  0  0  0  0  0
   58.1020  -77.5570  -14.5473 C   0  0  0  0  0  0  0  0  0  0  0  0
   57.2198  -77.0372  -15.4753 C   0  0  0  0  0  0  0  0  0  0  0  0
   56.7007  -77.8492  -16.4666 C   0  0  0  0  0  0  0  0  0  0  0  0
   57.0635  -79.1814  -16.5299 C   0  0  0  0  0  0  0  0  0  0  0  0
   57.9455  -79.7027  -15.6020 C   0  0  0  0  0  0  0  0  0  0  0  0
   58.4702  -78.8892  -14.6138 C   0  0  0  0  0  0  0  0  0  0  0  0
   59.5785  -79.5430  -13.4484 Cl  0  0  0  0  0  0  0  0  0  0  0  0
   62.9301  -73.8015  -18.4665 H   0  0  0  0  0  0  0  0  0  0  0  0
   64.2494  -74.8347  -19.0667 H   0  0  0  0  0  0  0  0  0  0  0  0
   62.6646  -75.5482  -18.6820 H   0  0  0  0  0  0  0  0  0  0  0  0
   67.7215  -72.7615  -14.6256 H   0  0  0  0  0  0  0  0  0  0  0  0
   66.4951  -72.6995  -15.9141 H   0  0  0  0  0  0  0  0  0  0  0  0
   65.9913  -72.7545  -14.2079 H   0  0  0  0  0  0  0  0  0  0  0  0
   62.9151  -76.9359  -13.2238 H   0  0  0  0  0  0  0  0  0  0  0  0
   60.7396  -77.4115  -12.5141 H   0  0  0  0  0  0  0  0  0  0  0  0
   56.9354  -75.9964  -15.4259 H   0  0  0  0  0  0  0  0  0  0  0  0
   56.0113  -77.4425  -17.1917 H   0  0  0  0  0  0  0  0  0  0  0  0
   56.6574  -79.8153  -17.3044 H   0  0  0  0  0  0  0  0  0  0  0  0
   58.2283  -80.7439  -15.6510 H   0  0  0  0  0  0  0  0  0  0  0  0
  1  2  1  0  0  0  0
  2  3  2  0  0  0  0
  3  4  1  0  0  0  0
  4  5  2  0  0  0  0
  5  6  1  0  0  0  0
  6  7  2  0  0  0  0
  2  7  1  0  0  0  0
  6  8  1  0  0  0  0
  8  9  1  0  0  0  0
  4 10  1  0  0  0  0
 10 11  1  0  0  0  0
 11 12  2  0  0  0  0
 11 13  1  0  0  0  0
 13 14  1  0  0  0  0
 14 15  2  0  0  0  0
 14 16  2  0  0  0  0
 14 17  1  0  0  0  0
 17 18  2  0  0  0  0
 18 19  1  0  0  0  0
 19 20  2  0  0  0  0
 20 21  1  0  0  0  0
 21 22  2  0  0  0  0
 17 22  1  0  0  0  0
 22 23  1  0  0  0  0
  1 24  1  0  0  0  0
  1 25  1  0  0  0  0
  1 26  1  0  0  0  0
  9 27  1  0  0  0  0
  9 28  1  0  0  0  0
  9 29  1  0  0  0  0
 10 30  1  0  0  0  0
 13 31  1  0  0  0  0
 18 32  1  0  0  0  0
 19 33  1  0  0  0  0
 20 34  1  0  0  0  0
 21 35  1  0  0  0  0
M  END
> <Gold.Version>
2021.2.0

> <Gold.Id.Protein>
5K6Q|5K6Q_protein|mol2

> <Gold.PLP.Fitness>
24.7729

> <Gold.PLP.PLP>
-17.4506

> <Gold.PLP.part.hbond>
-5.0000

> <Gold.PLP.part.metal>
0.0000

> <Gold.PLP.part.buried>
-4.2072

> <Gold.PLP.part.nonpolar>
-10.0221

> <Gold.PLP.part.repulsive>
0.7254

> <Gold.PLP.ligand.clash>
0.0064

> <Gold.PLP.ligand.torsion>
1.9042

> <Gold.PLP.Chemscore.Hbond>
2.6212

> <Gold.PLP.Chemscore.CHOScore>
0.0000

> <Gold.PLP.Chemscore.Metal>
0.0000

> <Gold.Chemscore.Hbonds>
donor molecule, donor type, donor heavy atom, donor atom, acceptor molecule, acceptor atom, score
      L1  H    10    30       P1  2231  0.91
      L1  H    13    31       P1  2231  0.86
      P1  H  2204  6935       L1    16  0.83
      P1  H  4671  9479       L1    15  0.02

> <Gold.PLP.Chemscore.Internal.Correction>
3.2734

> <Gold.Protein.RotatedTorsions>
[ 6459 1704 1703 1701 ] final  -75.30 input   60.01 | X-H torsion
[ 6656 1882 1881 1878 ] final   89.71 input   60.00 | X-H torsion
[ 7002 2256 2255 2252 ] final  115.09 input   60.00 | X-H torsion
[ 6986 2270 2269 2268 ] final   58.85 input   59.99 | X-H torsion
[ 9089 4362 4361 4358 ] final  -89.82 input   60.01 | X-H torsion
[ 9191 4472 4471 4469 ] final -137.03 input   60.00 | X-H torsion
[ 9201 4474 4473 4471 ] final   62.87 input   60.00 | X-H torsion
[ 9219 4506 4505 4504 ] final  122.95 input   60.00 | X-H torsion
[ 9220 4508 4507 4505 ] final  165.73 input   60.00 | X-H torsion
[ 9214 4510 4509 4507 ] final -126.60 input   60.00 | X-H torsion

> <Gold.Protein.ActiveResidues>
 TYR305  THR331  LEU332  MET333  LEU349  GLY350  MET351  HIS352  GLY353  ASN358 
 VAL372  ARG373  PHE374  ASP375  ASP376  ARG377  VAL378  THR379  GLY380  LYS381 
 LEU382  PHE385  ASN404  GLY508  GLY509  TRP574  ILE651  PRO652  SER653  GLY654 
 GLY655  FAD702  HOH839  HOH865  HOH881  HOH913  HOH945  HOH958  HOH960  HOH966 
 HOH968 

> <Gold.Protein.RotatedAtoms>
   59.9625  -72.8671   -3.7765 H   0  0  0  0  0  0  0  0  0  0  0  0  # atno 6459 bound_to 1704
   62.6191  -67.4565   -5.6740 H   0  0  0  0  0  0  0  0  0  0  0  0  # atno 6656 bound_to 1882
   63.6010  -90.1935   -1.8212 H   0  0  0  0  0  0  0  0  0  0  0  0  # atno 6986 bound_to 2270
   62.3750  -89.5328   -0.9225 H   0  0  0  0  0  0  0  0  0  0  0  0  # atno 6987 bound_to 2270
   62.0220  -90.4828   -2.2341 H   0  0  0  0  0  0  0  0  0  0  0  0  # atno 6988 bound_to 2270
   61.0191  -81.0676   -5.3937 H   0  0  0  0  0  0  0  0  0  0  0  0  # atno 7002 bound_to 2256
   68.3995  -80.9897  -11.9295 H   0  0  0  0  0  0  0  0  0  0  0  0  # atno 9089 bound_to 4362
   53.0005  -70.0273   -8.6180 H   0  0  0  0  0  0  0  0  0  0  0  0  # atno 9191 bound_to 4472
   51.1016  -68.3474   -7.6920 H   0  0  0  0  0  0  0  0  0  0  0  0  # atno 9201 bound_to 4474
   62.1838  -71.8943   -7.2788 H   0  0  0  0  0  0  0  0  0  0  0  0  # atno 9214 bound_to 4510
   64.4125  -73.3951  -11.2849 H   0  0  0  0  0  0  0  0  0  0  0  0  # atno 9219 bound_to 4506
   62.1869  -69.3977  -10.9790 H   0  0  0  0  0  0  0  0  0  0  0  0  # atno 9220 bound_to 4508
   59.8062  -74.3934   -3.2344 LP  0  0  0  0  0  0  0  0  0  0  0  0  # atno 9615 bound_to 1704
   61.2644  -73.6589   -3.2053 LP  0  0  0  0  0  0  0  0  0  0  0  0  # atno 9616 bound_to 1704
   62.4446  -66.9452   -4.1390 LP  0  0  0  0  0  0  0  0  0  0  0  0  # atno 9619 bound_to 1882
   61.3430  -67.9557   -4.7962 LP  0  0  0  0  0  0  0  0  0  0  0  0  # atno 9620 bound_to 1882
   62.2000  -80.0414   -5.8415 LP  0  0  0  0  0  0  0  0  0  0  0  0  # atno 9664 bound_to 2256
   60.6407  -79.5569   -5.8657 LP  0  0  0  0  0  0  0  0  0  0  0  0  # atno 9665 bound_to 2256
   69.6367  -81.5210  -12.8435 LP  0  0  0  0  0  0  0  0  0  0  0  0  # atno 9690 bound_to 4362
   69.8997  -81.0506  -11.3020 LP  0  0  0  0  0  0  0  0  0  0  0  0  # atno 9691 bound_to 4362
   52.1994  -69.3331   -7.3834 LP  0  0  0  0  0  0  0  0  0  0  0  0  # atno 9698 bound_to 4472
   53.6943  -69.9469   -7.1482 LP  0  0  0  0  0  0  0  0  0  0  0  0  # atno 9699 bound_to 4472
   51.3668  -68.0511   -9.2699 LP  0  0  0  0  0  0  0  0  0  0  0  0  # atno 9700 bound_to 4474
   50.6924  -66.9044   -8.3230 LP  0  0  0  0  0  0  0  0  0  0  0  0  # atno 9701 bound_to 4474
   65.1965  -72.1372  -11.9565 LP  0  0  0  0  0  0  0  0  0  0  0  0  # atno 9709 bound_to 4506
   63.5648  -72.1953  -11.9847 LP  0  0  0  0  0  0  0  0  0  0  0  0  # atno 9710 bound_to 4506
   63.4930  -70.0040  -11.7369 LP  0  0  0  0  0  0  0  0  0  0  0  0  # atno 9711 bound_to 4508
   63.6714  -69.1330  -10.3671 LP  0  0  0  0  0  0  0  0  0  0  0  0  # atno 9712 bound_to 4508
   63.7652  -71.5111   -7.2549 LP  0  0  0  0  0  0  0  0  0  0  0  0  # atno 9713 bound_to 4510
   63.1796  -72.5014   -8.4138 LP  0  0  0  0  0  0  0  0  0  0  0  0  # atno 9714 bound_to 4510

$$$$
