C12H12ClN5O4S|Chlorsulfuron|mol|1|dock35
  -GOLD-   2292219383D 1   1.00000     0.00000
 
 35 36  0  0  0  0  0  0  0  0  1 V2000
   67.8521  -72.1450  -16.6086 C   0  0  0  0  0  0  0  0  0  0  0  0
   67.4066  -73.3593  -15.8351 C   0  0  0  0  0  0  0  0  0  0  0  0
   66.2401  -73.3542  -15.2145 N   0  0  0  0  0  0  0  0  0  0  0  0
   65.8444  -74.4245  -14.5311 C   0  0  0  0  0  0  0  0  0  0  0  0
   66.6233  -75.4983  -14.4734 N   0  0  0  0  0  0  0  0  0  0  0  0
   67.7940  -75.4997  -15.0980 C   0  0  0  0  0  0  0  0  0  0  0  0
   68.1813  -74.4292  -15.7835 N   0  0  0  0  0  0  0  0  0  0  0  0
   68.5907  -76.5919  -15.0409 O   0  0  0  0  0  0  0  0  0  0  0  0
   69.8955  -76.1332  -14.6815 C   0  0  0  0  0  0  0  0  0  0  0  0
   64.6215  -74.4187  -13.8802 N   0  0  0  0  0  0  0  0  0  0  0  0
   63.5179  -74.8601  -14.5154 C   0  0  0  0  0  0  0  0  0  0  0  0
   63.5954  -75.2632  -15.6597 O   0  0  0  0  0  0  0  0  0  0  0  0
   62.3281  -74.8544  -13.8822 N   0  0  0  0  0  0  0  0  0  0  0  0
   60.9522  -75.2769  -14.7011 S   0  0  0  0  0  0  0  0  0  0  0  0
   59.8705  -74.8759  -13.8715 O   0  0  0  0  0  0  0  0  0  0  0  0
   61.1581  -74.8589  -16.0436 O   0  0  0  0  0  0  0  0  0  0  0  0
   60.8892  -77.0371  -14.7523 C   0  0  0  0  0  0  0  0  0  0  0  0
   62.0264  -77.7608  -15.0567 C   0  0  0  0  0  0  0  0  0  0  0  0
   61.9772  -79.1418  -15.0970 C   0  0  0  0  0  0  0  0  0  0  0  0
   60.7904  -79.7996  -14.8332 C   0  0  0  0  0  0  0  0  0  0  0  0
   59.6520  -79.0768  -14.5291 C   0  0  0  0  0  0  0  0  0  0  0  0
   59.7023  -77.6951  -14.4822 C   0  0  0  0  0  0  0  0  0  0  0  0
   58.2732  -76.7868  -14.0997 Cl  0  0  0  0  0  0  0  0  0  0  0  0
   68.4105  -71.4796  -15.9503 H   0  0  0  0  0  0  0  0  0  0  0  0
   68.4891  -72.4554  -17.4368 H   0  0  0  0  0  0  0  0  0  0  0  0
   66.9788  -71.6218  -16.9981 H   0  0  0  0  0  0  0  0  0  0  0  0
   70.5759  -76.9828  -14.6229 H   0  0  0  0  0  0  0  0  0  0  0  0
   70.2542  -75.4317  -15.4347 H   0  0  0  0  0  0  0  0  0  0  0  0
   69.8516  -75.6353  -13.7129 H   0  0  0  0  0  0  0  0  0  0  0  0
   64.5596  -74.0969  -12.9671 H   0  0  0  0  0  0  0  0  0  0  0  0
   62.2778  -74.6028  -12.9467 H   0  0  0  0  0  0  0  0  0  0  0  0
   62.9538  -77.2473  -15.2635 H   0  0  0  0  0  0  0  0  0  0  0  0
   62.8662  -79.7070  -15.3349 H   0  0  0  0  0  0  0  0  0  0  0  0
   60.7525  -80.8785  -14.8651 H   0  0  0  0  0  0  0  0  0  0  0  0
   58.7247  -79.5908  -14.3238 H   0  0  0  0  0  0  0  0  0  0  0  0
  1  2  1  0  0  0  0
  2  3  2  0  0  0  0
  3  4  1  0  0  0  0
  4  5  2  0  0  0  0
  5  6  1  0  0  0  0
  6  7  2  0  0  0  0
  2  7  1  0  0  0  0
  6  8  1  0  0  0  0
  8  9  1  0  0  0  0
  4 10  1  0  0  0  0
 10 11  1  0  0  0  0
 11 12  2  0  0  0  0
 11 13  1  0  0  0  0
 13 14  1  0  0  0  0
 14 15  2  0  0  0  0
 14 16  2  0  0  0  0
 14 17  1  0  0  0  0
 17 18  2  0  0  0  0
 18 19  1  0  0  0  0
 19 20  2  0  0  0  0
 20 21  1  0  0  0  0
 21 22  2  0  0  0  0
 17 22  1  0  0  0  0
 22 23  1  0  0  0  0
  1 24  1  0  0  0  0
  1 25  1  0  0  0  0
  1 26  1  0  0  0  0
  9 27  1  0  0  0  0
  9 28  1  0  0  0  0
  9 29  1  0  0  0  0
 10 30  1  0  0  0  0
 13 31  1  0  0  0  0
 18 32  1  0  0  0  0
 19 33  1  0  0  0  0
 20 34  1  0  0  0  0
 21 35  1  0  0  0  0
M  END
> <Gold.Version>
2021.2.0

> <Gold.Id.Protein>
5K6Q|5K6Q_protein|mol2

> <Gold.PLP.Fitness>
31.9408

> <Gold.PLP.PLP>
-25.8895

> <Gold.PLP.part.hbond>
-5.2773

> <Gold.PLP.part.metal>
0.0000

> <Gold.PLP.part.buried>
-8.6647

> <Gold.PLP.part.nonpolar>
-14.5881

> <Gold.PLP.part.repulsive>
2.7728

> <Gold.PLP.ligand.clash>
0.0000

> <Gold.PLP.ligand.torsion>
2.4741

> <Gold.PLP.Chemscore.Hbond>
2.5768

> <Gold.PLP.Chemscore.CHOScore>
0.0000

> <Gold.PLP.Chemscore.Metal>
0.0000

> <Gold.Chemscore.Hbonds>
donor molecule, donor type, donor heavy atom, donor atom, acceptor molecule, acceptor atom, score
      L1  H    10    30       P1  4506  0.17
      L1  H    13    31       P1  2223  0.41
      P1  H  2204  6935       L1    15  1.00
      P1  H  2243  6969       L1     8  0.99

> <Gold.PLP.Chemscore.Internal.Correction>
3.2693

> <Gold.Protein.RotatedTorsions>
[ 6459 1704 1703 1701 ] final  110.05 input   60.01 | X-H torsion
[ 6656 1882 1881 1878 ] final  -87.79 input   60.00 | X-H torsion
[ 7002 2256 2255 2252 ] final -142.32 input   60.00 | X-H torsion
[ 6986 2270 2269 2268 ] final   86.71 input   59.99 | X-H torsion
[ 9089 4362 4361 4358 ] final  -71.75 input   60.01 | X-H torsion
[ 9191 4472 4471 4469 ] final  -55.89 input   60.00 | X-H torsion
[ 9201 4474 4473 4471 ] final  -73.68 input   60.00 | X-H torsion
[ 9219 4506 4505 4504 ] final  -24.47 input   60.00 | X-H torsion
[ 9220 4508 4507 4505 ] final  170.51 input   60.00 | X-H torsion
[ 9214 4510 4509 4507 ] final -113.84 input   60.00 | X-H torsion

> <Gold.Protein.ActiveResidues>
 TYR305  THR331  LEU332  MET333  LEU349  GLY350  MET351  HIS352  GLY353  ASN358 
 VAL372  ARG373  PHE374  ASP375  ASP376  ARG377  VAL378  THR379  GLY380  LYS381 
 LEU382  PHE385  ASN404  GLY508  GLY509  TRP574  ILE651  PRO652  SER653  GLY654 
 GLY655  FAD702  HOH839  HOH865  HOH881  HOH913  HOH945  HOH958  HOH960  HOH966 
 HOH968 

> <Gold.Protein.RotatedAtoms>
   60.6441  -74.4437   -3.0364 H   0  0  0  0  0  0  0  0  0  0  0  0  # atno 6459 bound_to 1704
   61.6841  -67.4257   -4.0524 H   0  0  0  0  0  0  0  0  0  0  0  0  # atno 6656 bound_to 1882
   63.5879  -89.9229   -1.4486 H   0  0  0  0  0  0  0  0  0  0  0  0  # atno 6986 bound_to 2270
   61.9828  -89.6731   -1.1193 H   0  0  0  0  0  0  0  0  0  0  0  0  # atno 6987 bound_to 2270
   62.4274  -90.6132   -2.4099 H   0  0  0  0  0  0  0  0  0  0  0  0  # atno 6988 bound_to 2270
   60.4719  -79.7684   -5.7780 H   0  0  0  0  0  0  0  0  0  0  0  0  # atno 7002 bound_to 2256
   68.4911  -80.9159  -11.6601 H   0  0  0  0  0  0  0  0  0  0  0  0  # atno 9089 bound_to 4362
   53.8177  -70.1559   -7.7242 H   0  0  0  0  0  0  0  0  0  0  0  0  # atno 9191 bound_to 4472
   51.2872  -67.8003   -9.3326 H   0  0  0  0  0  0  0  0  0  0  0  0  # atno 9201 bound_to 4474
   62.1308  -72.0215   -7.4347 H   0  0  0  0  0  0  0  0  0  0  0  0  # atno 9214 bound_to 4510
   64.8772  -71.8697  -12.1140 H   0  0  0  0  0  0  0  0  0  0  0  0  # atno 9219 bound_to 4506
   62.1986  -69.3565  -10.9138 H   0  0  0  0  0  0  0  0  0  0  0  0  # atno 9220 bound_to 4508
   60.9490  -72.9293   -3.5478 LP  0  0  0  0  0  0  0  0  0  0  0  0  # atno 9615 bound_to 1704
   59.4352  -73.5352   -3.6373 LP  0  0  0  0  0  0  0  0  0  0  0  0  # atno 9616 bound_to 1704
   61.7960  -67.9706   -5.5817 LP  0  0  0  0  0  0  0  0  0  0  0  0  # atno 9619 bound_to 1882
   62.9332  -66.9613   -4.9863 LP  0  0  0  0  0  0  0  0  0  0  0  0  # atno 9620 bound_to 1882
   61.2987  -81.1190   -5.4036 LP  0  0  0  0  0  0  0  0  0  0  0  0  # atno 9664 bound_to 2256
   62.0931  -79.7877   -5.9165 LP  0  0  0  0  0  0  0  0  0  0  0  0  # atno 9665 bound_to 2256
   69.3509  -81.4929  -12.9155 LP  0  0  0  0  0  0  0  0  0  0  0  0  # atno 9690 bound_to 4362
   70.0932  -81.1530  -11.5012 LP  0  0  0  0  0  0  0  0  0  0  0  0  # atno 9691 bound_to 4362
   52.4506  -69.7512   -8.5087 LP  0  0  0  0  0  0  0  0  0  0  0  0  # atno 9698 bound_to 4472
   52.6202  -69.3994   -6.9231 LP  0  0  0  0  0  0  0  0  0  0  0  0  # atno 9699 bound_to 4472
   50.6634  -66.9897   -8.0670 LP  0  0  0  0  0  0  0  0  0  0  0  0  # atno 9700 bound_to 4474
   51.2088  -68.5167   -7.8736 LP  0  0  0  0  0  0  0  0  0  0  0  0  # atno 9701 bound_to 4474
   63.4492  -72.5745  -11.7786 LP  0  0  0  0  0  0  0  0  0  0  0  0  # atno 9709 bound_to 4506
   64.8440  -73.2941  -11.3276 LP  0  0  0  0  0  0  0  0  0  0  0  0  # atno 9710 bound_to 4506
   63.4201  -70.0148  -11.7639 LP  0  0  0  0  0  0  0  0  0  0  0  0  # atno 9711 bound_to 4508
   63.7325  -69.1636  -10.4058 LP  0  0  0  0  0  0  0  0  0  0  0  0  # atno 9712 bound_to 4508
   63.6197  -71.4452   -7.1195 LP  0  0  0  0  0  0  0  0  0  0  0  0  # atno 9713 bound_to 4510
   63.3784  -72.4392   -8.3924 LP  0  0  0  0  0  0  0  0  0  0  0  0  # atno 9714 bound_to 4510

$$$$
