C12H12ClN5O4S|Chlorsulfuron|mol|1|dock9
  -GOLD-   2292219383D 1   1.00000     0.00000
 
 35 36  0  0  0  0  0  0  0  0  1 V2000
   61.4363  -86.1487  -14.0503 C   0  0  0  0  0  0  0  0  0  0  0  0
   62.0281  -85.2118  -13.0289 C   0  0  0  0  0  0  0  0  0  0  0  0
   62.4731  -84.0252  -13.4027 N   0  0  0  0  0  0  0  0  0  0  0  0
   62.9959  -83.1962  -12.5033 C   0  0  0  0  0  0  0  0  0  0  0  0
   63.0699  -83.5628  -11.2292 N   0  0  0  0  0  0  0  0  0  0  0  0
   62.6218  -84.7553  -10.8578 C   0  0  0  0  0  0  0  0  0  0  0  0
   62.0957  -85.5768  -11.7602 N   0  0  0  0  0  0  0  0  0  0  0  0
   62.6960  -85.1326   -9.5604 O   0  0  0  0  0  0  0  0  0  0  0  0
   63.5084  -86.3074   -9.5177 C   0  0  0  0  0  0  0  0  0  0  0  0
   63.4629  -81.9524  -12.8955 N   0  0  0  0  0  0  0  0  0  0  0  0
   63.9321  -81.7723  -14.1461 C   0  0  0  0  0  0  0  0  0  0  0  0
   63.9456  -82.7015  -14.9299 O   0  0  0  0  0  0  0  0  0  0  0  0
   64.3866  -80.5622  -14.5277 N   0  0  0  0  0  0  0  0  0  0  0  0
   65.0787  -80.3704  -16.0198 S   0  0  0  0  0  0  0  0  0  0  0  0
   65.6981  -79.0918  -15.9968 O   0  0  0  0  0  0  0  0  0  0  0  0
   65.7367  -81.5982  -16.3009 O   0  0  0  0  0  0  0  0  0  0  0  0
   63.7716  -80.2480  -17.1950 C   0  0  0  0  0  0  0  0  0  0  0  0
   63.6293  -81.2134  -18.1735 C   0  0  0  0  0  0  0  0  0  0  0  0
   62.6038  -81.1175  -19.0958 C   0  0  0  0  0  0  0  0  0  0  0  0
   61.7206  -80.0558  -19.0400 C   0  0  0  0  0  0  0  0  0  0  0  0
   61.8621  -79.0892  -18.0620 C   0  0  0  0  0  0  0  0  0  0  0  0
   62.8841  -79.1881  -17.1350 C   0  0  0  0  0  0  0  0  0  0  0  0
   63.0622  -77.9749  -15.9061 Cl  0  0  0  0  0  0  0  0  0  0  0  0
   62.2238  -86.7770  -14.4664 H   0  0  0  0  0  0  0  0  0  0  0  0
   60.6837  -86.7771  -13.5739 H   0  0  0  0  0  0  0  0  0  0  0  0
   60.9733  -85.5696  -14.8493 H   0  0  0  0  0  0  0  0  0  0  0  0
   63.5975  -86.6502   -8.4869 H   0  0  0  0  0  0  0  0  0  0  0  0
   63.0486  -87.0892  -10.1223 H   0  0  0  0  0  0  0  0  0  0  0  0
   64.4988  -86.0789   -9.9115 H   0  0  0  0  0  0  0  0  0  0  0  0
   63.4523  -81.2110  -12.2701 H   0  0  0  0  0  0  0  0  0  0  0  0
   64.3081  -79.8036  -13.9283 H   0  0  0  0  0  0  0  0  0  0  0  0
   64.3196  -82.0429  -18.2180 H   0  0  0  0  0  0  0  0  0  0  0  0
   62.4929  -81.8722  -19.8603 H   0  0  0  0  0  0  0  0  0  0  0  0
   60.9198  -79.9812  -19.7609 H   0  0  0  0  0  0  0  0  0  0  0  0
   61.1724  -78.2592  -18.0190 H   0  0  0  0  0  0  0  0  0  0  0  0
  1  2  1  0  0  0  0
  2  3  2  0  0  0  0
  3  4  1  0  0  0  0
  4  5  2  0  0  0  0
  5  6  1  0  0  0  0
  6  7  2  0  0  0  0
  2  7  1  0  0  0  0
  6  8  1  0  0  0  0
  8  9  1  0  0  0  0
  4 10  1  0  0  0  0
 10 11  1  0  0  0  0
 11 12  2  0  0  0  0
 11 13  1  0  0  0  0
 13 14  1  0  0  0  0
 14 15  2  0  0  0  0
 14 16  2  0  0  0  0
 14 17  1  0  0  0  0
 17 18  2  0  0  0  0
 18 19  1  0  0  0  0
 19 20  2  0  0  0  0
 20 21  1  0  0  0  0
 21 22  2  0  0  0  0
 17 22  1  0  0  0  0
 22 23  1  0  0  0  0
  1 24  1  0  0  0  0
  1 25  1  0  0  0  0
  1 26  1  0  0  0  0
  9 27  1  0  0  0  0
  9 28  1  0  0  0  0
  9 29  1  0  0  0  0
 10 30  1  0  0  0  0
 13 31  1  0  0  0  0
 18 32  1  0  0  0  0
 19 33  1  0  0  0  0
 20 34  1  0  0  0  0
 21 35  1  0  0  0  0
M  END
> <Gold.Version>
2021.2.0

> <Gold.Id.Protein>
5K6Q|5K6Q_protein|mol2

> <Gold.PLP.Fitness>
19.8254

> <Gold.PLP.PLP>
-11.8539

> <Gold.PLP.part.hbond>
-6.5857

> <Gold.PLP.part.metal>
0.0000

> <Gold.PLP.part.buried>
-2.1217

> <Gold.PLP.part.nonpolar>
-4.3052

> <Gold.PLP.part.repulsive>
0.3637

> <Gold.PLP.ligand.clash>
0.0000

> <Gold.PLP.ligand.torsion>
1.6949

> <Gold.PLP.Chemscore.Hbond>
2.6960

> <Gold.PLP.Chemscore.CHOScore>
0.0000

> <Gold.PLP.Chemscore.Metal>
0.0000

> <Gold.Chemscore.Hbonds>
donor molecule, donor type, donor heavy atom, donor atom, acceptor molecule, acceptor atom, score
      L1  H    10    30       P1  2232  0.99
      L1  H    13    31       P1  2232  0.70
      P1  H  4724  9546       L1    16  1.00

> <Gold.PLP.Chemscore.Internal.Correction>
3.2734

> <Gold.Protein.RotatedTorsions>
[ 6459 1704 1703 1701 ] final   69.89 input   60.01 | X-H torsion
[ 6656 1882 1881 1878 ] final -167.67 input   60.00 | X-H torsion
[ 7002 2256 2255 2252 ] final  170.72 input   60.00 | X-H torsion
[ 6986 2270 2269 2268 ] final  112.56 input   59.99 | X-H torsion
[ 9089 4362 4361 4358 ] final   72.14 input   60.01 | X-H torsion
[ 9191 4472 4471 4469 ] final   78.11 input   60.00 | X-H torsion
[ 9201 4474 4473 4471 ] final  -61.94 input   60.00 | X-H torsion
[ 9219 4506 4505 4504 ] final    0.83 input   60.00 | X-H torsion
[ 9220 4508 4507 4505 ] final -100.84 input   60.00 | X-H torsion
[ 9214 4510 4509 4507 ] final  114.31 input   60.00 | X-H torsion

> <Gold.Protein.ActiveResidues>
 TYR305  THR331  LEU332  MET333  LEU349  GLY350  MET351  HIS352  GLY353  ASN358 
 VAL372  ARG373  PHE374  ASP375  ASP376  ARG377  VAL378  THR379  GLY380  LYS381 
 LEU382  PHE385  ASN404  GLY508  GLY509  TRP574  ILE651  PRO652  SER653  GLY654 
 GLY655  FAD702  HOH839  HOH865  HOH881  HOH913  HOH945  HOH958  HOH960  HOH966 
 HOH968 

> <Gold.Protein.RotatedAtoms>
   61.1329  -74.0296   -3.0901 H   0  0  0  0  0  0  0  0  0  0  0  0  # atno 6459 bound_to 1704
   61.4160  -68.0185   -5.0633 H   0  0  0  0  0  0  0  0  0  0  0  0  # atno 6656 bound_to 1882
   63.3838  -89.7008   -1.1448 H   0  0  0  0  0  0  0  0  0  0  0  0  # atno 6986 bound_to 2270
   61.7590  -89.8866   -1.4153 H   0  0  0  0  0  0  0  0  0  0  0  0  # atno 6987 bound_to 2270
   62.8555  -90.6217   -2.4177 H   0  0  0  0  0  0  0  0  0  0  0  0  # atno 6988 bound_to 2270
   60.3975  -80.4707   -5.5377 H   0  0  0  0  0  0  0  0  0  0  0  0  # atno 7002 bound_to 2256
   70.2216  -81.2933  -11.8406 H   0  0  0  0  0  0  0  0  0  0  0  0  # atno 9089 bound_to 4362
   52.4435  -69.3541   -7.0615 H   0  0  0  0  0  0  0  0  0  0  0  0  # atno 9191 bound_to 4472
   51.3460  -67.9776   -9.2911 H   0  0  0  0  0  0  0  0  0  0  0  0  # atno 9201 bound_to 4474
   63.7505  -71.5070   -7.2488 H   0  0  0  0  0  0  0  0  0  0  0  0  # atno 9214 bound_to 4510
   65.1723  -72.1139  -11.9676 H   0  0  0  0  0  0  0  0  0  0  0  0  # atno 9219 bound_to 4506
   63.2723  -69.0211  -10.2456 H   0  0  0  0  0  0  0  0  0  0  0  0  # atno 9220 bound_to 4508
   60.3551  -72.7557   -3.7385 LP  0  0  0  0  0  0  0  0  0  0  0  0  # atno 9615 bound_to 1704
   59.5368  -74.1258   -3.3924 LP  0  0  0  0  0  0  0  0  0  0  0  0  # atno 9616 bound_to 1704
   62.7890  -67.2802   -5.5302 LP  0  0  0  0  0  0  0  0  0  0  0  0  # atno 9619 bound_to 1882
   62.2102  -67.0547   -4.0200 LP  0  0  0  0  0  0  0  0  0  0  0  0  # atno 9620 bound_to 1882
   61.9812  -80.8441   -5.5551 LP  0  0  0  0  0  0  0  0  0  0  0  0  # atno 9664 bound_to 2256
   61.4855  -79.3553   -6.0070 LP  0  0  0  0  0  0  0  0  0  0  0  0  # atno 9665 bound_to 2256
   68.7300  -80.8558  -11.3590 LP  0  0  0  0  0  0  0  0  0  0  0  0  # atno 9690 bound_to 4362
   68.9715  -81.4102  -12.8759 LP  0  0  0  0  0  0  0  0  0  0  0  0  # atno 9691 bound_to 4362
   53.8210  -70.1000   -7.5022 LP  0  0  0  0  0  0  0  0  0  0  0  0  # atno 9698 bound_to 4472
   52.6338  -69.8581   -8.5970 LP  0  0  0  0  0  0  0  0  0  0  0  0  # atno 9699 bound_to 4472
   50.6807  -66.9220   -8.2466 LP  0  0  0  0  0  0  0  0  0  0  0  0  # atno 9700 bound_to 4474
   51.1323  -68.4058   -7.7358 LP  0  0  0  0  0  0  0  0  0  0  0  0  # atno 9701 bound_to 4474
   63.5486  -72.2225  -11.9702 LP  0  0  0  0  0  0  0  0  0  0  0  0  # atno 9709 bound_to 4506
   64.4475  -73.4002  -11.2834 LP  0  0  0  0  0  0  0  0  0  0  0  0  # atno 9710 bound_to 4506
   62.2332  -69.6320  -11.3388 LP  0  0  0  0  0  0  0  0  0  0  0  0  # atno 9711 bound_to 4508
   63.8381  -69.8842  -11.5037 LP  0  0  0  0  0  0  0  0  0  0  0  0  # atno 9712 bound_to 4508
   63.1940  -72.4978   -8.4135 LP  0  0  0  0  0  0  0  0  0  0  0  0  # atno 9713 bound_to 4510
   62.1730  -71.9047   -7.2855 LP  0  0  0  0  0  0  0  0  0  0  0  0  # atno 9714 bound_to 4510

$$$$
