C12H12ClN5O4S|Chlorsulfuron|mol|1|dock1
  -GOLD-   2292219373D 1   1.00000     0.00000
 
 35 36  0  0  0  0  0  0  0  0  1 V2000
   63.3784  -74.9572  -18.4487 C   0  0  0  0  0  0  0  0  0  0  0  0
   63.8356  -75.1388  -17.0242 C   0  0  0  0  0  0  0  0  0  0  0  0
   63.0116  -75.6516  -16.1278 N   0  0  0  0  0  0  0  0  0  0  0  0
   63.4125  -75.8130  -14.8698 C   0  0  0  0  0  0  0  0  0  0  0  0
   64.6421  -75.4580  -14.5161 N   0  0  0  0  0  0  0  0  0  0  0  0
   65.4668  -74.9433  -15.4193 C   0  0  0  0  0  0  0  0  0  0  0  0
   65.0620  -74.7896  -16.6757 N   0  0  0  0  0  0  0  0  0  0  0  0
   66.7203  -74.5798  -15.0625 O   0  0  0  0  0  0  0  0  0  0  0  0
   66.5880  -73.5652  -14.0649 C   0  0  0  0  0  0  0  0  0  0  0  0
   62.5482  -76.3504  -13.9299 N   0  0  0  0  0  0  0  0  0  0  0  0
   61.2177  -76.1822  -14.0640 C   0  0  0  0  0  0  0  0  0  0  0  0
   60.7761  -75.5589  -15.0097 O   0  0  0  0  0  0  0  0  0  0  0  0
   60.3767  -76.7049  -13.1496 N   0  0  0  0  0  0  0  0  0  0  0  0
   58.7531  -76.3928  -13.2439 S   0  0  0  0  0  0  0  0  0  0  0  0
   58.2071  -76.8089  -11.9998 O   0  0  0  0  0  0  0  0  0  0  0  0
   58.6422  -75.0880  -13.7957 O   0  0  0  0  0  0  0  0  0  0  0  0
   58.0766  -77.4825  -14.4520 C   0  0  0  0  0  0  0  0  0  0  0  0
   57.9904  -77.0830  -15.7721 C   0  0  0  0  0  0  0  0  0  0  0  0
   57.4594  -77.9378  -16.7202 C   0  0  0  0  0  0  0  0  0  0  0  0
   57.0142  -79.1924  -16.3482 C   0  0  0  0  0  0  0  0  0  0  0  0
   57.0995  -79.5931  -15.0280 C   0  0  0  0  0  0  0  0  0  0  0  0
   57.6366  -78.7406  -14.0801 C   0  0  0  0  0  0  0  0  0  0  0  0
   57.7446  -79.2433  -12.4219 Cl  0  0  0  0  0  0  0  0  0  0  0  0
   62.9300  -73.9704  -18.5634 H   0  0  0  0  0  0  0  0  0  0  0  0
   64.2331  -75.0481  -19.1191 H   0  0  0  0  0  0  0  0  0  0  0  0
   62.6413  -75.7218  -18.6940 H   0  0  0  0  0  0  0  0  0  0  0  0
   67.5777  -73.2393  -13.7447 H   0  0  0  0  0  0  0  0  0  0  0  0
   66.0425  -72.7174  -14.4791 H   0  0  0  0  0  0  0  0  0  0  0  0
   66.0429  -73.9652  -13.2099 H   0  0  0  0  0  0  0  0  0  0  0  0
   62.9005  -76.8477  -13.1753 H   0  0  0  0  0  0  0  0  0  0  0  0
   60.7226  -77.2639  -12.4364 H   0  0  0  0  0  0  0  0  0  0  0  0
   58.3375  -76.1025  -16.0632 H   0  0  0  0  0  0  0  0  0  0  0  0
   57.3922  -77.6252  -17.7517 H   0  0  0  0  0  0  0  0  0  0  0  0
   56.5993  -79.8596  -17.0892 H   0  0  0  0  0  0  0  0  0  0  0  0
   56.7508  -80.5730  -14.7373 H   0  0  0  0  0  0  0  0  0  0  0  0
  1  2  1  0  0  0  0
  2  3  2  0  0  0  0
  3  4  1  0  0  0  0
  4  5  2  0  0  0  0
  5  6  1  0  0  0  0
  6  7  2  0  0  0  0
  2  7  1  0  0  0  0
  6  8  1  0  0  0  0
  8  9  1  0  0  0  0
  4 10  1  0  0  0  0
 10 11  1  0  0  0  0
 11 12  2  0  0  0  0
 11 13  1  0  0  0  0
 13 14  1  0  0  0  0
 14 15  2  0  0  0  0
 14 16  2  0  0  0  0
 14 17  1  0  0  0  0
 17 18  2  0  0  0  0
 18 19  1  0  0  0  0
 19 20  2  0  0  0  0
 20 21  1  0  0  0  0
 21 22  2  0  0  0  0
 17 22  1  0  0  0  0
 22 23  1  0  0  0  0
  1 24  1  0  0  0  0
  1 25  1  0  0  0  0
  1 26  1  0  0  0  0
  9 27  1  0  0  0  0
  9 28  1  0  0  0  0
  9 29  1  0  0  0  0
 10 30  1  0  0  0  0
 13 31  1  0  0  0  0
 18 32  1  0  0  0  0
 19 33  1  0  0  0  0
 20 34  1  0  0  0  0
 21 35  1  0  0  0  0
M  END
> <Gold.Version>
2021.2.0

> <Gold.Id.Protein>
5K6Q|5K6Q_protein|mol2

> <Gold.PLP.Fitness>
26.2814

> <Gold.PLP.PLP>
-18.0943

> <Gold.PLP.part.hbond>
-5.0000

> <Gold.PLP.part.metal>
0.0000

> <Gold.PLP.part.buried>
-4.0286

> <Gold.PLP.part.nonpolar>
-11.0863

> <Gold.PLP.part.repulsive>
0.7177

> <Gold.PLP.ligand.clash>
0.0089

> <Gold.PLP.ligand.torsion>
1.6355

> <Gold.PLP.Chemscore.Hbond>
2.7312

> <Gold.PLP.Chemscore.CHOScore>
0.0000

> <Gold.PLP.Chemscore.Metal>
0.0000

> <Gold.Chemscore.Hbonds>
donor molecule, donor type, donor heavy atom, donor atom, acceptor molecule, acceptor atom, score
      L1  H    10    30       P1  2231  0.94
      L1  H    13    31       P1  2231  0.86
      P1  H  2204  6935       L1    16  0.83
      P1  H  4671  9479       L1    15  0.10

> <Gold.PLP.Chemscore.Internal.Correction>
3.2734

> <Gold.Protein.RotatedTorsions>
[ 6459 1704 1703 1701 ] final -145.31 input   60.01 | X-H torsion
[ 6656 1882 1881 1878 ] final   99.41 input   60.00 | X-H torsion
[ 7002 2256 2255 2252 ] final  169.12 input   60.00 | X-H torsion
[ 6986 2270 2269 2268 ] final   30.34 input   59.99 | X-H torsion
[ 9089 4362 4361 4358 ] final   43.04 input   60.01 | X-H torsion
[ 9191 4472 4471 4469 ] final  -70.71 input   60.00 | X-H torsion
[ 9201 4474 4473 4471 ] final  -93.78 input   60.00 | X-H torsion
[ 9219 4506 4505 4504 ] final  101.92 input   60.00 | X-H torsion
[ 9220 4508 4507 4505 ] final  126.93 input   60.00 | X-H torsion
[ 9214 4510 4509 4507 ] final  -80.16 input   60.00 | X-H torsion

> <Gold.Protein.ActiveResidues>
 TYR305  THR331  LEU332  MET333  LEU349  GLY350  MET351  HIS352  GLY353  ASN358 
 VAL372  ARG373  PHE374  ASP375  ASP376  ARG377  VAL378  THR379  GLY380  LYS381 
 LEU382  PHE385  ASN404  GLY508  GLY509  TRP574  ILE651  PRO652  SER653  GLY654 
 GLY655  FAD702  HOH839  HOH865  HOH881  HOH913  HOH945  HOH958  HOH960  HOH966 
 HOH968 

> <Gold.Protein.RotatedAtoms>
   59.4274  -73.7698   -3.5476 H   0  0  0  0  0  0  0  0  0  0  0  0  # atno 6459 bound_to 1704
   62.5058  -67.5541   -5.7260 H   0  0  0  0  0  0  0  0  0  0  0  0  # atno 6656 bound_to 1882
   63.3903  -90.4404   -2.1630 H   0  0  0  0  0  0  0  0  0  0  0  0  # atno 6986 bound_to 2270
   62.8454  -89.5182   -0.8980 H   0  0  0  0  0  0  0  0  0  0  0  0  # atno 6987 bound_to 2270
   61.7622  -90.2505   -1.9167 H   0  0  0  0  0  0  0  0  0  0  0  0  # atno 6988 bound_to 2270
   60.4058  -80.4945   -5.5305 H   0  0  0  0  0  0  0  0  0  0  0  0  # atno 7002 bound_to 2256
   70.0391  -81.1254  -11.4408 H   0  0  0  0  0  0  0  0  0  0  0  0  # atno 9089 bound_to 4362
   53.7644  -70.1946   -7.9566 H   0  0  0  0  0  0  0  0  0  0  0  0  # atno 9191 bound_to 4472
   51.1656  -67.4974   -9.3154 H   0  0  0  0  0  0  0  0  0  0  0  0  # atno 9201 bound_to 4474
   62.2069  -72.3285   -7.8755 H   0  0  0  0  0  0  0  0  0  0  0  0  # atno 9214 bound_to 4510
   64.7467  -73.3287  -11.3093 H   0  0  0  0  0  0  0  0  0  0  0  0  # atno 9219 bound_to 4506
   62.3276  -69.7359  -11.4816 H   0  0  0  0  0  0  0  0  0  0  0  0  # atno 9220 bound_to 4508
   60.8674  -74.3285   -3.0354 LP  0  0  0  0  0  0  0  0  0  0  0  0  # atno 9615 bound_to 1704
   60.7420  -72.8147   -3.6347 LP  0  0  0  0  0  0  0  0  0  0  0  0  # atno 9616 bound_to 1704
   62.5646  -66.9037   -4.2355 LP  0  0  0  0  0  0  0  0  0  0  0  0  # atno 9619 bound_to 1882
   61.3372  -67.8990   -4.6473 LP  0  0  0  0  0  0  0  0  0  0  0  0  # atno 9620 bound_to 1882
   61.9986  -80.8258   -5.5627 LP  0  0  0  0  0  0  0  0  0  0  0  0  # atno 9664 bound_to 2256
   61.4597  -79.3497   -6.0066 LP  0  0  0  0  0  0  0  0  0  0  0  0  # atno 9665 bound_to 2256
   68.4503  -80.9307  -11.7340 LP  0  0  0  0  0  0  0  0  0  0  0  0  # atno 9690 bound_to 4362
   69.4350  -81.5043  -12.9036 LP  0  0  0  0  0  0  0  0  0  0  0  0  # atno 9691 bound_to 4362
   52.2901  -69.6394   -8.3641 LP  0  0  0  0  0  0  0  0  0  0  0  0  # atno 9698 bound_to 4472
   52.8343  -69.4722   -6.8336 LP  0  0  0  0  0  0  0  0  0  0  0  0  # atno 9699 bound_to 4472
   50.6716  -67.1792   -7.7980 LP  0  0  0  0  0  0  0  0  0  0  0  0  # atno 9700 bound_to 4474
   51.3230  -68.6323   -8.1599 LP  0  0  0  0  0  0  0  0  0  0  0  0  # atno 9701 bound_to 4474
   64.9672  -71.9166  -12.0873 LP  0  0  0  0  0  0  0  0  0  0  0  0  # atno 9709 bound_to 4506
   63.4574  -72.4827  -11.8292 LP  0  0  0  0  0  0  0  0  0  0  0  0  # atno 9710 bound_to 4506
   63.9490  -69.8004  -11.3587 LP  0  0  0  0  0  0  0  0  0  0  0  0  # atno 9711 bound_to 4508
   63.0737  -68.9960  -10.2391 LP  0  0  0  0  0  0  0  0  0  0  0  0  # atno 9712 bound_to 4508
   63.1211  -71.4001   -6.9006 LP  0  0  0  0  0  0  0  0  0  0  0  0  # atno 9713 bound_to 4510
   63.8004  -72.1750   -8.1673 LP  0  0  0  0  0  0  0  0  0  0  0  0  # atno 9714 bound_to 4510

$$$$
