C12H12ClN5O4S|Chlorsulfuron|mol|1|dock29
  -GOLD-   2292219383D 1   1.00000     0.00000
 
 35 36  0  0  0  0  0  0  0  0  1 V2000
   67.4046  -73.9925  -13.7680 C   0  0  0  0  0  0  0  0  0  0  0  0
   66.4688  -74.9285  -14.4887 C   0  0  0  0  0  0  0  0  0  0  0  0
   65.3310  -75.2888  -13.9217 N   0  0  0  0  0  0  0  0  0  0  0  0
   64.5031  -76.1147  -14.5555 C   0  0  0  0  0  0  0  0  0  0  0  0
   64.8216  -76.5767  -15.7590 N   0  0  0  0  0  0  0  0  0  0  0  0
   65.9652  -76.2125  -16.3251 C   0  0  0  0  0  0  0  0  0  0  0  0
   66.7855  -75.3828  -15.6890 N   0  0  0  0  0  0  0  0  0  0  0  0
   66.2933  -76.6816  -17.5511 O   0  0  0  0  0  0  0  0  0  0  0  0
   65.2688  -76.2470  -18.4475 C   0  0  0  0  0  0  0  0  0  0  0  0
   63.3105  -76.4928  -13.9606 N   0  0  0  0  0  0  0  0  0  0  0  0
   62.1402  -76.0320  -14.4449 C   0  0  0  0  0  0  0  0  0  0  0  0
   62.1311  -75.2846  -15.4036 O   0  0  0  0  0  0  0  0  0  0  0  0
   60.9798  -76.3997  -13.8661 N   0  0  0  0  0  0  0  0  0  0  0  0
   59.5519  -75.7365  -14.3793 S   0  0  0  0  0  0  0  0  0  0  0  0
   58.5268  -76.5410  -13.8127 O   0  0  0  0  0  0  0  0  0  0  0  0
   59.6908  -74.3338  -14.1991 O   0  0  0  0  0  0  0  0  0  0  0  0
   59.4501  -75.9875  -16.1204 C   0  0  0  0  0  0  0  0  0  0  0  0
   59.6158  -74.9209  -16.9833 C   0  0  0  0  0  0  0  0  0  0  0  0
   59.5359  -75.1177  -18.3494 C   0  0  0  0  0  0  0  0  0  0  0  0
   59.2899  -76.3812  -18.8530 C   0  0  0  0  0  0  0  0  0  0  0  0
   59.1236  -77.4489  -17.9909 C   0  0  0  0  0  0  0  0  0  0  0  0
   59.2099  -77.2537  -16.6240 C   0  0  0  0  0  0  0  0  0  0  0  0
   59.0016  -78.5942  -15.5407 Cl  0  0  0  0  0  0  0  0  0  0  0  0
   68.1009  -74.5711  -13.1609 H   0  0  0  0  0  0  0  0  0  0  0  0
   67.9611  -73.4029  -14.4966 H   0  0  0  0  0  0  0  0  0  0  0  0
   66.8288  -73.3267  -13.1252 H   0  0  0  0  0  0  0  0  0  0  0  0
   65.4912  -76.6031  -19.4534 H   0  0  0  0  0  0  0  0  0  0  0  0
   64.3086  -76.6486  -18.1239 H   0  0  0  0  0  0  0  0  0  0  0  0
   65.2252  -75.1579  -18.4489 H   0  0  0  0  0  0  0  0  0  0  0  0
   63.3177  -77.0891  -13.1956 H   0  0  0  0  0  0  0  0  0  0  0  0
   60.9812  -77.0529  -13.1490 H   0  0  0  0  0  0  0  0  0  0  0  0
   59.8073  -73.9333  -16.5904 H   0  0  0  0  0  0  0  0  0  0  0  0
   59.6654  -74.2838  -19.0235 H   0  0  0  0  0  0  0  0  0  0  0  0
   59.2273  -76.5342  -19.9203 H   0  0  0  0  0  0  0  0  0  0  0  0
   58.9306  -78.4359  -18.3844 H   0  0  0  0  0  0  0  0  0  0  0  0
  1  2  1  0  0  0  0
  2  3  2  0  0  0  0
  3  4  1  0  0  0  0
  4  5  2  0  0  0  0
  5  6  1  0  0  0  0
  6  7  2  0  0  0  0
  2  7  1  0  0  0  0
  6  8  1  0  0  0  0
  8  9  1  0  0  0  0
  4 10  1  0  0  0  0
 10 11  1  0  0  0  0
 11 12  2  0  0  0  0
 11 13  1  0  0  0  0
 13 14  1  0  0  0  0
 14 15  2  0  0  0  0
 14 16  2  0  0  0  0
 14 17  1  0  0  0  0
 17 18  2  0  0  0  0
 18 19  1  0  0  0  0
 19 20  2  0  0  0  0
 20 21  1  0  0  0  0
 21 22  2  0  0  0  0
 17 22  1  0  0  0  0
 22 23  1  0  0  0  0
  1 24  1  0  0  0  0
  1 25  1  0  0  0  0
  1 26  1  0  0  0  0
  9 27  1  0  0  0  0
  9 28  1  0  0  0  0
  9 29  1  0  0  0  0
 10 30  1  0  0  0  0
 13 31  1  0  0  0  0
 18 32  1  0  0  0  0
 19 33  1  0  0  0  0
 20 34  1  0  0  0  0
 21 35  1  0  0  0  0
M  END
> <Gold.Version>
2021.2.0

> <Gold.Id.Protein>
5K6Q|5K6Q_protein|mol2

> <Gold.PLP.Fitness>
28.6123

> <Gold.PLP.PLP>
-20.9613

> <Gold.PLP.part.hbond>
-4.5591

> <Gold.PLP.part.metal>
0.0000

> <Gold.PLP.part.buried>
-5.2514

> <Gold.PLP.part.nonpolar>
-12.7827

> <Gold.PLP.part.repulsive>
0.4606

> <Gold.PLP.ligand.clash>
0.0000

> <Gold.PLP.ligand.torsion>
2.2055

> <Gold.PLP.Chemscore.Hbond>
2.9309

> <Gold.PLP.Chemscore.CHOScore>
0.0000

> <Gold.PLP.Chemscore.Metal>
0.0000

> <Gold.Chemscore.Hbonds>
donor molecule, donor type, donor heavy atom, donor atom, acceptor molecule, acceptor atom, score
      L1  H    10    30       P1  2231  0.96
      L1  H    13    31       P1  2231  0.14
      P1  H  2204  6935       L1    16  1.00
      P1  H  4718  9584       L1     8  0.83

> <Gold.PLP.Chemscore.Internal.Correction>
3.2693

> <Gold.Protein.RotatedTorsions>
[ 6459 1704 1703 1701 ] final -178.23 input   60.01 | X-H torsion
[ 6656 1882 1881 1878 ] final  144.85 input   60.00 | X-H torsion
[ 7002 2256 2255 2252 ] final -171.08 input   60.00 | X-H torsion
[ 6986 2270 2269 2268 ] final  163.89 input   59.99 | X-H torsion
[ 9089 4362 4361 4358 ] final -127.50 input   60.01 | X-H torsion
[ 9191 4472 4471 4469 ] final  124.83 input   60.00 | X-H torsion
[ 9201 4474 4473 4471 ] final   96.49 input   60.00 | X-H torsion
[ 9219 4506 4505 4504 ] final   22.06 input   60.00 | X-H torsion
[ 9220 4508 4507 4505 ] final  152.88 input   60.00 | X-H torsion
[ 9214 4510 4509 4507 ] final  137.29 input   60.00 | X-H torsion

> <Gold.Protein.ActiveResidues>
 TYR305  THR331  LEU332  MET333  LEU349  GLY350  MET351  HIS352  GLY353  ASN358 
 VAL372  ARG373  PHE374  ASP375  ASP376  ARG377  VAL378  THR379  GLY380  LYS381 
 LEU382  PHE385  ASN404  GLY508  GLY509  TRP574  ILE651  PRO652  SER653  GLY654 
 GLY655  FAD702  HOH839  HOH865  HOH881  HOH913  HOH945  HOH958  HOH960  HOH966 
 HOH968 

> <Gold.Protein.RotatedAtoms>
   59.6135  -74.2202   -3.3380 H   0  0  0  0  0  0  0  0  0  0  0  0  # atno 6459 bound_to 1704
   61.8945  -67.9307   -5.6392 H   0  0  0  0  0  0  0  0  0  0  0  0  # atno 6656 bound_to 1882
   62.6205  -89.5077   -0.8859 H   0  0  0  0  0  0  0  0  0  0  0  0  # atno 6986 bound_to 2270
   61.8612  -90.3703   -2.0805 H   0  0  0  0  0  0  0  0  0  0  0  0  # atno 6987 bound_to 2270
   63.5168  -90.3310   -2.0112 H   0  0  0  0  0  0  0  0  0  0  0  0  # atno 6988 bound_to 2270
   60.3532  -80.1917   -5.6266 H   0  0  0  0  0  0  0  0  0  0  0  0  # atno 7002 bound_to 2256
   68.4971  -81.1960  -12.4895 H   0  0  0  0  0  0  0  0  0  0  0  0  # atno 9089 bound_to 4362
   52.1121  -69.3834   -7.7253 H   0  0  0  0  0  0  0  0  0  0  0  0  # atno 9191 bound_to 4472
   50.8797  -67.8865   -7.5142 H   0  0  0  0  0  0  0  0  0  0  0  0  # atno 9201 bound_to 4474
   63.4656  -71.4107   -7.0281 H   0  0  0  0  0  0  0  0  0  0  0  0  # atno 9214 bound_to 4510
   65.3059  -72.3898  -11.8096 H   0  0  0  0  0  0  0  0  0  0  0  0  # atno 9219 bound_to 4506
   62.1874  -69.5116  -11.1549 H   0  0  0  0  0  0  0  0  0  0  0  0  # atno 9220 bound_to 4508
   61.1977  -73.9175   -3.1215 LP  0  0  0  0  0  0  0  0  0  0  0  0  # atno 9615 bound_to 1704
   60.2244  -72.7721   -3.7599 LP  0  0  0  0  0  0  0  0  0  0  0  0  # atno 9616 bound_to 1704
   62.9180  -66.9249   -4.8719 LP  0  0  0  0  0  0  0  0  0  0  0  0  # atno 9619 bound_to 1882
   61.5993  -67.4985   -4.0983 LP  0  0  0  0  0  0  0  0  0  0  0  0  # atno 9620 bound_to 1882
   61.7491  -81.0147   -5.4779 LP  0  0  0  0  0  0  0  0  0  0  0  0  # atno 9664 bound_to 2256
   61.7622  -79.4657   -5.9946 LP  0  0  0  0  0  0  0  0  0  0  0  0  # atno 9665 bound_to 2256
   70.1001  -81.4738  -12.4512 LP  0  0  0  0  0  0  0  0  0  0  0  0  # atno 9690 bound_to 4362
   69.3379  -80.8900  -11.1303 LP  0  0  0  0  0  0  0  0  0  0  0  0  # atno 9691 bound_to 4362
   53.4697  -69.7841   -6.9226 LP  0  0  0  0  0  0  0  0  0  0  0  0  # atno 9698 bound_to 4472
   53.3188  -70.1444   -8.5081 LP  0  0  0  0  0  0  0  0  0  0  0  0  # atno 9699 bound_to 4472
   51.4445  -68.4668   -8.9257 LP  0  0  0  0  0  0  0  0  0  0  0  0  # atno 9700 bound_to 4474
   50.8380  -66.9528   -8.8462 LP  0  0  0  0  0  0  0  0  0  0  0  0  # atno 9701 bound_to 4474
   63.7585  -71.9773  -12.0985 LP  0  0  0  0  0  0  0  0  0  0  0  0  # atno 9709 bound_to 4506
   64.1031  -73.3676  -11.3143 LP  0  0  0  0  0  0  0  0  0  0  0  0  # atno 9710 bound_to 4506
   63.6750  -69.9580  -11.6404 LP  0  0  0  0  0  0  0  0  0  0  0  0  # atno 9711 bound_to 4508
   63.4888  -69.0642  -10.2865 LP  0  0  0  0  0  0  0  0  0  0  0  0  # atno 9712 bound_to 4508
   63.5387  -72.3659   -8.3435 LP  0  0  0  0  0  0  0  0  0  0  0  0  # atno 9713 bound_to 4510
   62.1152  -72.1335   -7.5778 LP  0  0  0  0  0  0  0  0  0  0  0  0  # atno 9714 bound_to 4510

$$$$
