C12H12ClN5O4S|Chlorsulfuron|mol|1|dock12
  -GOLD-   2292219383D 1   1.00000     0.00000
 
 35 36  0  0  0  0  0  0  0  0  1 V2000
   63.4302  -74.9875  -18.4830 C   0  0  0  0  0  0  0  0  0  0  0  0
   63.8799  -75.1637  -17.0554 C   0  0  0  0  0  0  0  0  0  0  0  0
   63.0539  -75.6809  -16.1632 N   0  0  0  0  0  0  0  0  0  0  0  0
   63.4481  -75.8375  -14.9025 C   0  0  0  0  0  0  0  0  0  0  0  0
   64.6730  -75.4733  -14.5418 N   0  0  0  0  0  0  0  0  0  0  0  0
   65.4996  -74.9543  -15.4407 C   0  0  0  0  0  0  0  0  0  0  0  0
   65.1016  -74.8054  -16.6998 N   0  0  0  0  0  0  0  0  0  0  0  0
   66.7484  -74.5815  -15.0767 O   0  0  0  0  0  0  0  0  0  0  0  0
   66.6039  -73.6297  -14.0207 C   0  0  0  0  0  0  0  0  0  0  0  0
   62.5817  -76.3794  -13.9672 N   0  0  0  0  0  0  0  0  0  0  0  0
   61.2511  -76.2173  -14.1076 C   0  0  0  0  0  0  0  0  0  0  0  0
   60.8112  -75.5954  -15.0550 O   0  0  0  0  0  0  0  0  0  0  0  0
   60.4082  -76.7444  -13.1976 N   0  0  0  0  0  0  0  0  0  0  0  0
   58.7836  -76.4397  -13.2995 S   0  0  0  0  0  0  0  0  0  0  0  0
   58.2312  -76.8735  -12.0643 O   0  0  0  0  0  0  0  0  0  0  0  0
   58.6696  -75.1290  -13.8365 O   0  0  0  0  0  0  0  0  0  0  0  0
   58.1213  -77.5184  -14.5252 C   0  0  0  0  0  0  0  0  0  0  0  0
   58.0266  -77.0975  -15.8380 C   0  0  0  0  0  0  0  0  0  0  0  0
   57.5068  -77.9437  -16.7999 C   0  0  0  0  0  0  0  0  0  0  0  0
   57.0812  -79.2110  -16.4490 C   0  0  0  0  0  0  0  0  0  0  0  0
   57.1750  -79.6332  -15.1361 C   0  0  0  0  0  0  0  0  0  0  0  0
   57.7010  -78.7892  -14.1744 C   0  0  0  0  0  0  0  0  0  0  0  0
   57.8197  -79.3189  -12.5255 Cl  0  0  0  0  0  0  0  0  0  0  0  0
   62.9757  -74.0041  -18.6021 H   0  0  0  0  0  0  0  0  0  0  0  0
   64.2897  -75.0735  -19.1479 H   0  0  0  0  0  0  0  0  0  0  0  0
   62.7000  -75.7577  -18.7316 H   0  0  0  0  0  0  0  0  0  0  0  0
   67.5893  -73.2987  -13.6926 H   0  0  0  0  0  0  0  0  0  0  0  0
   66.0335  -72.7729  -14.3793 H   0  0  0  0  0  0  0  0  0  0  0  0
   66.0788  -74.0915  -13.1846 H   0  0  0  0  0  0  0  0  0  0  0  0
   62.9327  -76.8756  -13.2111 H   0  0  0  0  0  0  0  0  0  0  0  0
   60.7531  -77.3023  -12.4830 H   0  0  0  0  0  0  0  0  0  0  0  0
   58.3583  -76.1070  -16.1127 H   0  0  0  0  0  0  0  0  0  0  0  0
   57.4330  -77.6143  -17.8258 H   0  0  0  0  0  0  0  0  0  0  0  0
   56.6750  -79.8716  -17.2008 H   0  0  0  0  0  0  0  0  0  0  0  0
   56.8417  -80.6232  -14.8619 H   0  0  0  0  0  0  0  0  0  0  0  0
  1  2  1  0  0  0  0
  2  3  2  0  0  0  0
  3  4  1  0  0  0  0
  4  5  2  0  0  0  0
  5  6  1  0  0  0  0
  6  7  2  0  0  0  0
  2  7  1  0  0  0  0
  6  8  1  0  0  0  0
  8  9  1  0  0  0  0
  4 10  1  0  0  0  0
 10 11  1  0  0  0  0
 11 12  2  0  0  0  0
 11 13  1  0  0  0  0
 13 14  1  0  0  0  0
 14 15  2  0  0  0  0
 14 16  2  0  0  0  0
 14 17  1  0  0  0  0
 17 18  2  0  0  0  0
 18 19  1  0  0  0  0
 19 20  2  0  0  0  0
 20 21  1  0  0  0  0
 21 22  2  0  0  0  0
 17 22  1  0  0  0  0
 22 23  1  0  0  0  0
  1 24  1  0  0  0  0
  1 25  1  0  0  0  0
  1 26  1  0  0  0  0
  9 27  1  0  0  0  0
  9 28  1  0  0  0  0
  9 29  1  0  0  0  0
 10 30  1  0  0  0  0
 13 31  1  0  0  0  0
 18 32  1  0  0  0  0
 19 33  1  0  0  0  0
 20 34  1  0  0  0  0
 21 35  1  0  0  0  0
M  END
> <Gold.Version>
2021.2.0

> <Gold.Id.Protein>
5K6Q|5K6Q_protein|mol2

> <Gold.PLP.Fitness>
26.5678

> <Gold.PLP.PLP>
-18.4151

> <Gold.PLP.part.hbond>
-5.0000

> <Gold.PLP.part.metal>
0.0000

> <Gold.PLP.part.buried>
-4.4519

> <Gold.PLP.part.nonpolar>
-10.7883

> <Gold.PLP.part.repulsive>
0.6977

> <Gold.PLP.ligand.clash>
0.0000

> <Gold.PLP.ligand.torsion>
1.6454

> <Gold.PLP.Chemscore.Hbond>
2.7234

> <Gold.PLP.Chemscore.CHOScore>
0.0000

> <Gold.PLP.Chemscore.Metal>
0.0000

> <Gold.Chemscore.Hbonds>
donor molecule, donor type, donor heavy atom, donor atom, acceptor molecule, acceptor atom, score
      L1  H    10    30       P1  2231  0.92
      L1  H    13    31       P1  2231  0.90
      P1  H  2204  6935       L1    16  0.85
      P1  H  4671  9479       L1    15  0.05

> <Gold.PLP.Chemscore.Internal.Correction>
3.2734

> <Gold.Protein.RotatedTorsions>
[ 6459 1704 1703 1701 ] final   24.87 input   60.01 | X-H torsion
[ 6656 1882 1881 1878 ] final   34.72 input   60.00 | X-H torsion
[ 7002 2256 2255 2252 ] final  132.53 input   60.00 | X-H torsion
[ 6986 2270 2269 2268 ] final  158.46 input   59.99 | X-H torsion
[ 9089 4362 4361 4358 ] final  -93.83 input   60.01 | X-H torsion
[ 9191 4472 4471 4469 ] final -109.07 input   60.00 | X-H torsion
[ 9201 4474 4473 4471 ] final  178.34 input   60.00 | X-H torsion
[ 9219 4506 4505 4504 ] final  106.69 input   60.00 | X-H torsion
[ 9220 4508 4507 4505 ] final  -88.84 input   60.00 | X-H torsion
[ 9214 4510 4509 4507 ] final -101.86 input   60.00 | X-H torsion

> <Gold.Protein.ActiveResidues>
 TYR305  THR331  LEU332  MET333  LEU349  GLY350  MET351  HIS352  GLY353  ASN358 
 VAL372  ARG373  PHE374  ASP375  ASP376  ARG377  VAL378  THR379  GLY380  LYS381 
 LEU382  PHE385  ASN404  GLY508  GLY509  TRP574  ILE651  PRO652  SER653  GLY654 
 GLY655  FAD702  HOH839  HOH865  HOH881  HOH913  HOH945  HOH958  HOH960  HOH966 
 HOH968 

> <Gold.Protein.RotatedAtoms>
   61.2332  -73.3590   -3.3228 H   0  0  0  0  0  0  0  0  0  0  0  0  # atno 6459 bound_to 1704
   62.9312  -66.9808   -5.0232 H   0  0  0  0  0  0  0  0  0  0  0  0  # atno 6656 bound_to 1882
   62.7111  -89.5081   -0.8856 H   0  0  0  0  0  0  0  0  0  0  0  0  # atno 6986 bound_to 2270
   61.8159  -90.3240   -2.0171 H   0  0  0  0  0  0  0  0  0  0  0  0  # atno 6987 bound_to 2270
   63.4715  -90.3769   -2.0749 H   0  0  0  0  0  0  0  0  0  0  0  0  # atno 6988 bound_to 2270
   60.7634  -80.9455   -5.4118 H   0  0  0  0  0  0  0  0  0  0  0  0  # atno 7002 bound_to 2256
   68.3912  -81.0091  -11.9916 H   0  0  0  0  0  0  0  0  0  0  0  0  # atno 9089 bound_to 4362
   53.3984  -70.1621   -8.4498 H   0  0  0  0  0  0  0  0  0  0  0  0  # atno 9191 bound_to 4472
   50.6860  -66.9259   -8.2518 H   0  0  0  0  0  0  0  0  0  0  0  0  # atno 9201 bound_to 4474
   62.1220  -72.1386   -7.5909 H   0  0  0  0  0  0  0  0  0  0  0  0  # atno 9214 bound_to 4510
   64.6735  -73.3531  -11.2985 H   0  0  0  0  0  0  0  0  0  0  0  0  # atno 9219 bound_to 4506
   63.4602  -69.0619  -10.2824 H   0  0  0  0  0  0  0  0  0  0  0  0  # atno 9220 bound_to 4508
   59.6974  -73.0523   -3.7648 LP  0  0  0  0  0  0  0  0  0  0  0  0  # atno 9615 bound_to 1704
   60.0934  -74.5046   -3.1318 LP  0  0  0  0  0  0  0  0  0  0  0  0  # atno 9616 bound_to 1704
   61.7089  -67.3981   -4.0332 LP  0  0  0  0  0  0  0  0  0  0  0  0  # atno 9619 bound_to 1882
   61.7646  -67.9818   -5.5573 LP  0  0  0  0  0  0  0  0  0  0  0  0  # atno 9620 bound_to 1882
   62.2231  -80.3124   -5.7533 LP  0  0  0  0  0  0  0  0  0  0  0  0  # atno 9664 bound_to 2256
   60.8751  -79.4089   -5.9355 LP  0  0  0  0  0  0  0  0  0  0  0  0  # atno 9665 bound_to 2256
   69.6967  -81.5227  -12.8161 LP  0  0  0  0  0  0  0  0  0  0  0  0  # atno 9690 bound_to 4362
   69.8480  -81.0293  -11.2668 LP  0  0  0  0  0  0  0  0  0  0  0  0  # atno 9691 bound_to 4362
   52.1007  -69.4070   -7.8220 LP  0  0  0  0  0  0  0  0  0  0  0  0  # atno 9698 bound_to 4472
   53.3923  -69.7373   -6.8790 LP  0  0  0  0  0  0  0  0  0  0  0  0  # atno 9699 bound_to 4472
   51.1304  -68.4028   -7.7328 LP  0  0  0  0  0  0  0  0  0  0  0  0  # atno 9700 bound_to 4474
   51.3472  -67.9843   -9.2962 LP  0  0  0  0  0  0  0  0  0  0  0  0  # atno 9701 bound_to 4474
   65.0273  -71.9598  -12.0611 LP  0  0  0  0  0  0  0  0  0  0  0  0  # atno 9709 bound_to 4506
   63.4711  -72.4149  -11.8663 LP  0  0  0  0  0  0  0  0  0  0  0  0  # atno 9710 bound_to 4506
   62.1847  -69.5251  -11.1804 LP  0  0  0  0  0  0  0  0  0  0  0  0  # atno 9711 bound_to 4508
   63.6974  -69.9501  -11.6251 LP  0  0  0  0  0  0  0  0  0  0  0  0  # atno 9712 bound_to 4508
   63.4568  -71.4068   -7.0158 LP  0  0  0  0  0  0  0  0  0  0  0  0  # atno 9713 bound_to 4510
   63.5502  -72.3596   -8.3387 LP  0  0  0  0  0  0  0  0  0  0  0  0  # atno 9714 bound_to 4510

$$$$
