C12H12ClN5O4S|Chlorsulfuron|mol|1|dock48
  -GOLD-   2292219383D 1   1.00000     0.00000
 
 35 36  0  0  0  0  0  0  0  0  1 V2000
   58.6713  -77.6425  -17.6599 C   0  0  0  0  0  0  0  0  0  0  0  0
   59.4467  -77.1067  -16.4839 C   0  0  0  0  0  0  0  0  0  0  0  0
   60.4868  -77.7765  -16.0198 N   0  0  0  0  0  0  0  0  0  0  0  0
   61.1729  -77.3060  -14.9820 C   0  0  0  0  0  0  0  0  0  0  0  0
   60.8113  -76.1620  -14.4130 N   0  0  0  0  0  0  0  0  0  0  0  0
   59.7663  -75.4922  -14.8821 C   0  0  0  0  0  0  0  0  0  0  0  0
   59.0881  -75.9648  -15.9225 N   0  0  0  0  0  0  0  0  0  0  0  0
   59.3945  -74.3264  -14.3045 O   0  0  0  0  0  0  0  0  0  0  0  0
   59.4635  -73.3224  -15.3189 C   0  0  0  0  0  0  0  0  0  0  0  0
   62.2631  -78.0087  -14.4952 N   0  0  0  0  0  0  0  0  0  0  0  0
   63.0788  -78.6615  -15.3466 C   0  0  0  0  0  0  0  0  0  0  0  0
   62.8579  -78.6338  -16.5417 O   0  0  0  0  0  0  0  0  0  0  0  0
   64.1393  -79.3453  -14.8731 N   0  0  0  0  0  0  0  0  0  0  0  0
   65.0681  -80.2502  -15.9031 S   0  0  0  0  0  0  0  0  0  0  0  0
   65.3581  -79.4031  -17.0065 O   0  0  0  0  0  0  0  0  0  0  0  0
   66.0345  -80.8957  -15.0853 O   0  0  0  0  0  0  0  0  0  0  0  0
   64.0464  -81.5357  -16.5420 C   0  0  0  0  0  0  0  0  0  0  0  0
   64.0275  -81.7932  -17.8996 C   0  0  0  0  0  0  0  0  0  0  0  0
   63.2257  -82.8017  -18.4011 C   0  0  0  0  0  0  0  0  0  0  0  0
   62.4424  -83.5528  -17.5451 C   0  0  0  0  0  0  0  0  0  0  0  0
   62.4601  -83.2959  -16.1870 C   0  0  0  0  0  0  0  0  0  0  0  0
   63.2670  -82.2912  -15.6839 C   0  0  0  0  0  0  0  0  0  0  0  0
   63.2902  -81.9683  -13.9783 Cl  0  0  0  0  0  0  0  0  0  0  0  0
   57.8672  -78.2856  -17.3024 H   0  0  0  0  0  0  0  0  0  0  0  0
   58.2482  -76.8119  -18.2249 H   0  0  0  0  0  0  0  0  0  0  0  0
   59.3377  -78.2174  -18.3029 H   0  0  0  0  0  0  0  0  0  0  0  0
   59.1710  -72.3602  -14.8983 H   0  0  0  0  0  0  0  0  0  0  0  0
   60.4834  -73.2583  -15.6980 H   0  0  0  0  0  0  0  0  0  0  0  0
   58.7886  -73.5827  -16.1343 H   0  0  0  0  0  0  0  0  0  0  0  0
   62.4393  -78.0309  -13.5416 H   0  0  0  0  0  0  0  0  0  0  0  0
   64.3586  -79.3072  -13.9290 H   0  0  0  0  0  0  0  0  0  0  0  0
   64.6388  -81.2062  -18.5690 H   0  0  0  0  0  0  0  0  0  0  0  0
   63.2113  -83.0026  -19.4622 H   0  0  0  0  0  0  0  0  0  0  0  0
   61.8161  -84.3403  -17.9375 H   0  0  0  0  0  0  0  0  0  0  0  0
   61.8474  -83.8823  -15.5183 H   0  0  0  0  0  0  0  0  0  0  0  0
  1  2  1  0  0  0  0
  2  3  2  0  0  0  0
  3  4  1  0  0  0  0
  4  5  2  0  0  0  0
  5  6  1  0  0  0  0
  6  7  2  0  0  0  0
  2  7  1  0  0  0  0
  6  8  1  0  0  0  0
  8  9  1  0  0  0  0
  4 10  1  0  0  0  0
 10 11  1  0  0  0  0
 11 12  2  0  0  0  0
 11 13  1  0  0  0  0
 13 14  1  0  0  0  0
 14 15  2  0  0  0  0
 14 16  2  0  0  0  0
 14 17  1  0  0  0  0
 17 18  2  0  0  0  0
 18 19  1  0  0  0  0
 19 20  2  0  0  0  0
 20 21  1  0  0  0  0
 21 22  2  0  0  0  0
 17 22  1  0  0  0  0
 22 23  1  0  0  0  0
  1 24  1  0  0  0  0
  1 25  1  0  0  0  0
  1 26  1  0  0  0  0
  9 27  1  0  0  0  0
  9 28  1  0  0  0  0
  9 29  1  0  0  0  0
 10 30  1  0  0  0  0
 13 31  1  0  0  0  0
 18 32  1  0  0  0  0
 19 33  1  0  0  0  0
 20 34  1  0  0  0  0
 21 35  1  0  0  0  0
M  END
> <Gold.Version>
2021.2.0

> <Gold.Id.Protein>
5K6Q|5K6Q_protein|mol2

> <Gold.PLP.Fitness>
29.0717

> <Gold.PLP.PLP>
-15.0406

> <Gold.PLP.part.hbond>
-6.9704

> <Gold.PLP.part.metal>
0.0000

> <Gold.PLP.part.buried>
-3.4377

> <Gold.PLP.part.nonpolar>
-5.3723

> <Gold.PLP.part.repulsive>
0.4586

> <Gold.PLP.ligand.clash>
0.0000

> <Gold.PLP.ligand.torsion>
1.8915

> <Gold.PLP.Chemscore.Hbond>
4.8483

> <Gold.PLP.Chemscore.CHOScore>
0.0000

> <Gold.PLP.Chemscore.Metal>
0.0000

> <Gold.Chemscore.Hbonds>
donor molecule, donor type, donor heavy atom, donor atom, acceptor molecule, acceptor atom, score
      L1  H    10    30       P1  2231  0.85
      L1  H    13    31       P1  2232  1.00
      P1  H  2204  6935       L1     8  1.00
      P1  H  2243  6968       L1    16  1.00
      P1  H  4724  9546       L1    16  1.00

> <Gold.PLP.Chemscore.Internal.Correction>
3.2693

> <Gold.Protein.RotatedTorsions>
[ 6459 1704 1703 1701 ] final -117.26 input   60.01 | X-H torsion
[ 6656 1882 1881 1878 ] final  152.56 input   60.00 | X-H torsion
[ 7002 2256 2255 2252 ] final  -98.62 input   60.00 | X-H torsion
[ 6986 2270 2269 2268 ] final   41.58 input   59.99 | X-H torsion
[ 9089 4362 4361 4358 ] final   22.50 input   60.01 | X-H torsion
[ 9191 4472 4471 4469 ] final   57.89 input   60.00 | X-H torsion
[ 9201 4474 4473 4471 ] final   20.47 input   60.00 | X-H torsion
[ 9219 4506 4505 4504 ] final   90.37 input   60.00 | X-H torsion
[ 9220 4508 4507 4505 ] final  122.96 input   60.00 | X-H torsion
[ 9214 4510 4509 4507 ] final   87.66 input   60.00 | X-H torsion

> <Gold.Protein.ActiveResidues>
 TYR305  THR331  LEU332  MET333  LEU349  GLY350  MET351  HIS352  GLY353  ASN358 
 VAL372  ARG373  PHE374  ASP375  ASP376  ARG377  VAL378  THR379  GLY380  LYS381 
 LEU382  PHE385  ASN404  GLY508  GLY509  TRP574  ILE651  PRO652  SER653  GLY654 
 GLY655  FAD702  HOH839  HOH865  HOH881  HOH913  HOH945  HOH958  HOH960  HOH966 
 HOH968 

> <Gold.Protein.RotatedAtoms>
   59.5012  -73.3462   -3.6924 H   0  0  0  0  0  0  0  0  0  0  0  0  # atno 6459 bound_to 1704
   61.7953  -67.9705   -5.5728 H   0  0  0  0  0  0  0  0  0  0  0  0  # atno 6656 bound_to 1882
   63.4983  -90.3509   -2.0387 H   0  0  0  0  0  0  0  0  0  0  0  0  # atno 6986 bound_to 2270
   62.6588  -89.5074   -0.8849 H   0  0  0  0  0  0  0  0  0  0  0  0  # atno 6987 bound_to 2270
   61.8408  -90.3508   -2.0541 H   0  0  0  0  0  0  0  0  0  0  0  0  # atno 6988 bound_to 2270
   61.0120  -79.3672   -5.9590 H   0  0  0  0  0  0  0  0  0  0  0  0  # atno 7002 bound_to 2256
   69.7947  -81.0140  -11.2427 H   0  0  0  0  0  0  0  0  0  0  0  0  # atno 9089 bound_to 4362
   52.7108  -69.4275   -6.8851 H   0  0  0  0  0  0  0  0  0  0  0  0  # atno 9191 bound_to 4472
   51.3501  -68.6393   -8.2500 H   0  0  0  0  0  0  0  0  0  0  0  0  # atno 9201 bound_to 4474
   63.9376  -71.7083   -7.5813 H   0  0  0  0  0  0  0  0  0  0  0  0  # atno 9214 bound_to 4510
   64.9128  -73.2485  -11.3477 H   0  0  0  0  0  0  0  0  0  0  0  0  # atno 9219 bound_to 4506
   62.3642  -69.7673  -11.5249 H   0  0  0  0  0  0  0  0  0  0  0  0  # atno 9220 bound_to 4508
   60.4474  -74.5072   -3.0563 LP  0  0  0  0  0  0  0  0  0  0  0  0  # atno 9615 bound_to 1704
   61.0878  -73.0626   -3.4681 LP  0  0  0  0  0  0  0  0  0  0  0  0  # atno 9616 bound_to 1704
   62.9336  -66.9632   -4.9917 LP  0  0  0  0  0  0  0  0  0  0  0  0  # atno 9619 bound_to 1882
   61.6836  -67.4201   -4.0454 LP  0  0  0  0  0  0  0  0  0  0  0  0  # atno 9620 bound_to 1882
   60.6461  -80.8625   -5.4316 LP  0  0  0  0  0  0  0  0  0  0  0  0  # atno 9664 bound_to 2256
   62.2017  -80.4483   -5.7062 LP  0  0  0  0  0  0  0  0  0  0  0  0  # atno 9665 bound_to 2256
   68.3815  -81.0242  -12.0494 LP  0  0  0  0  0  0  0  0  0  0  0  0  # atno 9690 bound_to 4362
   69.7499  -81.5229  -12.7877 LP  0  0  0  0  0  0  0  0  0  0  0  0  # atno 9691 bound_to 4362
   53.8071  -70.1804   -7.8229 LP  0  0  0  0  0  0  0  0  0  0  0  0  # atno 9698 bound_to 4472
   52.3784  -69.7037   -8.4540 LP  0  0  0  0  0  0  0  0  0  0  0  0  # atno 9699 bound_to 4472
   51.1261  -67.4137   -9.2968 LP  0  0  0  0  0  0  0  0  0  0  0  0  # atno 9700 bound_to 4474
   50.6827  -67.2478   -7.7340 LP  0  0  0  0  0  0  0  0  0  0  0  0  # atno 9701 bound_to 4474
   64.8063  -71.8314  -12.1405 LP  0  0  0  0  0  0  0  0  0  0  0  0  # atno 9709 bound_to 4506
   63.4511  -72.6486  -11.7374 LP  0  0  0  0  0  0  0  0  0  0  0  0  # atno 9710 bound_to 4506
   63.9770  -69.7701  -11.3081 LP  0  0  0  0  0  0  0  0  0  0  0  0  # atno 9711 bound_to 4508
   63.0089  -68.9946  -10.2461 LP  0  0  0  0  0  0  0  0  0  0  0  0  # atno 9712 bound_to 4508
   62.7679  -72.5450   -8.3428 LP  0  0  0  0  0  0  0  0  0  0  0  0  # atno 9713 bound_to 4510
   62.4107  -71.6547   -7.0213 LP  0  0  0  0  0  0  0  0  0  0  0  0  # atno 9714 bound_to 4510

$$$$
