C12H12ClN5O4S|Chlorsulfuron|mol|1|dock17
  -GOLD-   2292219383D 1   1.00000     0.00000
 
 35 36  0  0  0  0  0  0  0  0  1 V2000
   59.7997  -82.7826  -13.2379 C   0  0  0  0  0  0  0  0  0  0  0  0
   59.1345  -81.4375  -13.3776 C   0  0  0  0  0  0  0  0  0  0  0  0
   59.8439  -80.3327  -13.2291 N   0  0  0  0  0  0  0  0  0  0  0  0
   59.2595  -79.1442  -13.3519 C   0  0  0  0  0  0  0  0  0  0  0  0
   57.9620  -79.0694  -13.6240 N   0  0  0  0  0  0  0  0  0  0  0  0
   57.2529  -80.1812  -13.7725 C   0  0  0  0  0  0  0  0  0  0  0  0
   57.8438  -81.3655  -13.6540 N   0  0  0  0  0  0  0  0  0  0  0  0
   55.9304  -80.1089  -14.0494 O   0  0  0  0  0  0  0  0  0  0  0  0
   55.2505  -80.8019  -13.0008 C   0  0  0  0  0  0  0  0  0  0  0  0
   60.0034  -77.9860  -13.1956 N   0  0  0  0  0  0  0  0  0  0  0  0
   59.6415  -76.8603  -13.8424 C   0  0  0  0  0  0  0  0  0  0  0  0
   58.6624  -76.8613  -14.5629 O   0  0  0  0  0  0  0  0  0  0  0  0
   60.3653  -75.7335  -13.6905 N   0  0  0  0  0  0  0  0  0  0  0  0
   59.9969  -74.3865  -14.5805 S   0  0  0  0  0  0  0  0  0  0  0  0
   58.5855  -74.2439  -14.4989 O   0  0  0  0  0  0  0  0  0  0  0  0
   60.9466  -73.4005  -14.1996 O   0  0  0  0  0  0  0  0  0  0  0  0
   60.3437  -74.7587  -16.2674 C   0  0  0  0  0  0  0  0  0  0  0  0
   59.3367  -74.6903  -17.2114 C   0  0  0  0  0  0  0  0  0  0  0  0
   59.6086  -74.9825  -18.5351 C   0  0  0  0  0  0  0  0  0  0  0  0
   60.8876  -75.3435  -18.9151 C   0  0  0  0  0  0  0  0  0  0  0  0
   61.8957  -75.4126  -17.9717 C   0  0  0  0  0  0  0  0  0  0  0  0
   61.6256  -75.1141  -16.6482 C   0  0  0  0  0  0  0  0  0  0  0  0
   62.8912  -75.2002  -15.4630 Cl  0  0  0  0  0  0  0  0  0  0  0  0
   59.7492  -83.1067  -12.1984 H   0  0  0  0  0  0  0  0  0  0  0  0
   59.2880  -83.5083  -13.8700 H   0  0  0  0  0  0  0  0  0  0  0  0
   60.8430  -82.7056  -13.5441 H   0  0  0  0  0  0  0  0  0  0  0  0
   54.1760  -80.7702  -13.1815 H   0  0  0  0  0  0  0  0  0  0  0  0
   55.5842  -81.8392  -12.9748 H   0  0  0  0  0  0  0  0  0  0  0  0
   55.4726  -80.3249  -12.0463 H   0  0  0  0  0  0  0  0  0  0  0  0
   60.7847  -77.9852  -12.6207 H   0  0  0  0  0  0  0  0  0  0  0  0
   61.1018  -75.7116  -13.0597 H   0  0  0  0  0  0  0  0  0  0  0  0
   58.3370  -74.4090  -16.9149 H   0  0  0  0  0  0  0  0  0  0  0  0
   58.8214  -74.9289  -19.2725 H   0  0  0  0  0  0  0  0  0  0  0  0
   61.0993  -75.5718  -19.9493 H   0  0  0  0  0  0  0  0  0  0  0  0
   62.8947  -75.6955  -18.2686 H   0  0  0  0  0  0  0  0  0  0  0  0
  1  2  1  0  0  0  0
  2  3  2  0  0  0  0
  3  4  1  0  0  0  0
  4  5  2  0  0  0  0
  5  6  1  0  0  0  0
  6  7  2  0  0  0  0
  2  7  1  0  0  0  0
  6  8  1  0  0  0  0
  8  9  1  0  0  0  0
  4 10  1  0  0  0  0
 10 11  1  0  0  0  0
 11 12  2  0  0  0  0
 11 13  1  0  0  0  0
 13 14  1  0  0  0  0
 14 15  2  0  0  0  0
 14 16  2  0  0  0  0
 14 17  1  0  0  0  0
 17 18  2  0  0  0  0
 18 19  1  0  0  0  0
 19 20  2  0  0  0  0
 20 21  1  0  0  0  0
 21 22  2  0  0  0  0
 17 22  1  0  0  0  0
 22 23  1  0  0  0  0
  1 24  1  0  0  0  0
  1 25  1  0  0  0  0
  1 26  1  0  0  0  0
  9 27  1  0  0  0  0
  9 28  1  0  0  0  0
  9 29  1  0  0  0  0
 10 30  1  0  0  0  0
 13 31  1  0  0  0  0
 18 32  1  0  0  0  0
 19 33  1  0  0  0  0
 20 34  1  0  0  0  0
 21 35  1  0  0  0  0
M  END
> <Gold.Version>
2021.2.0

> <Gold.Id.Protein>
5K6Q|5K6Q_protein|mol2

> <Gold.PLP.Fitness>
25.1069

> <Gold.PLP.PLP>
-17.4867

> <Gold.PLP.part.hbond>
-4.0000

> <Gold.PLP.part.metal>
0.0000

> <Gold.PLP.part.buried>
-3.4829

> <Gold.PLP.part.nonpolar>
-11.4453

> <Gold.PLP.part.repulsive>
1.3167

> <Gold.PLP.ligand.clash>
0.0156

> <Gold.PLP.ligand.torsion>
1.7329

> <Gold.PLP.Chemscore.Hbond>
2.6094

> <Gold.PLP.Chemscore.CHOScore>
0.0000

> <Gold.PLP.Chemscore.Metal>
0.0000

> <Gold.Chemscore.Hbonds>
donor molecule, donor type, donor heavy atom, donor atom, acceptor molecule, acceptor atom, score
      L1  H    10    30       P1  2231  1.00
      L1  H    13    31       P1  2223  0.40
      P1  H  2204  6935       L1    15  0.21
      P1  H  2205  6946       L1    16  1.00

> <Gold.PLP.Chemscore.Internal.Correction>
3.2734

> <Gold.Protein.RotatedTorsions>
[ 6459 1704 1703 1701 ] final  -24.22 input   60.01 | X-H torsion
[ 6656 1882 1881 1878 ] final  -17.37 input   60.00 | X-H torsion
[ 7002 2256 2255 2252 ] final  -90.19 input   60.00 | X-H torsion
[ 6986 2270 2269 2268 ] final  174.54 input   59.99 | X-H torsion
[ 9089 4362 4361 4358 ] final  146.46 input   60.01 | X-H torsion
[ 9191 4472 4471 4469 ] final  -67.27 input   60.00 | X-H torsion
[ 9201 4474 4473 4471 ] final   91.96 input   60.00 | X-H torsion
[ 9219 4506 4505 4504 ] final  127.45 input   60.00 | X-H torsion
[ 9220 4508 4507 4505 ] final   42.05 input   60.00 | X-H torsion
[ 9214 4510 4509 4507 ] final  -45.96 input   60.00 | X-H torsion

> <Gold.Protein.ActiveResidues>
 TYR305  THR331  LEU332  MET333  LEU349  GLY350  MET351  HIS352  GLY353  ASN358 
 VAL372  ARG373  PHE374  ASP375  ASP376  ARG377  VAL378  THR379  GLY380  LYS381 
 LEU382  PHE385  ASN404  GLY508  GLY509  TRP574  ILE651  PRO652  SER653  GLY654 
 GLY655  FAD702  HOH839  HOH865  HOH881  HOH913  HOH945  HOH958  HOH960  HOH966 
 HOH968 

> <Gold.Protein.RotatedAtoms>
   60.7544  -72.8259   -3.6254 H   0  0  0  0  0  0  0  0  0  0  0  0  # atno 6459 bound_to 1704
   62.5999  -66.8991   -4.2750 H   0  0  0  0  0  0  0  0  0  0  0  0  # atno 6656 bound_to 1882
   62.4446  -89.5216   -0.9067 H   0  0  0  0  0  0  0  0  0  0  0  0  # atno 6986 bound_to 2270
   61.9708  -90.4530   -2.1933 H   0  0  0  0  0  0  0  0  0  0  0  0  # atno 6987 bound_to 2270
   63.5832  -90.2344   -1.8776 H   0  0  0  0  0  0  0  0  0  0  0  0  # atno 6988 bound_to 2270
   61.1457  -79.3416   -5.9793 H   0  0  0  0  0  0  0  0  0  0  0  0  # atno 7002 bound_to 2256
   69.6894  -81.5226  -12.8119 H   0  0  0  0  0  0  0  0  0  0  0  0  # atno 9089 bound_to 4362
   53.7817  -70.1881   -7.9035 H   0  0  0  0  0  0  0  0  0  0  0  0  # atno 9191 bound_to 4472
   50.9078  -67.9547   -7.5207 H   0  0  0  0  0  0  0  0  0  0  0  0  # atno 9201 bound_to 4474
   62.5699  -72.5158   -8.2446 H   0  0  0  0  0  0  0  0  0  0  0  0  # atno 9214 bound_to 4510
   64.3389  -73.3952  -11.2875 H   0  0  0  0  0  0  0  0  0  0  0  0  # atno 9219 bound_to 4506
   63.5443  -69.9919  -11.7066 H   0  0  0  0  0  0  0  0  0  0  0  0  # atno 9220 bound_to 4508
   59.4202  -73.7550   -3.5573 LP  0  0  0  0  0  0  0  0  0  0  0  0  # atno 9615 bound_to 1704
   60.8528  -74.3389   -3.0346 LP  0  0  0  0  0  0  0  0  0  0  0  0  # atno 9616 bound_to 1704
   61.3403  -67.8772   -4.5991 LP  0  0  0  0  0  0  0  0  0  0  0  0  # atno 9619 bound_to 1882
   62.4667  -67.5850   -5.7448 LP  0  0  0  0  0  0  0  0  0  0  0  0  # atno 9620 bound_to 1882
   60.5522  -80.7636   -5.4562 LP  0  0  0  0  0  0  0  0  0  0  0  0  # atno 9664 bound_to 2256
   62.1610  -80.5729   -5.6611 LP  0  0  0  0  0  0  0  0  0  0  0  0  # atno 9665 bound_to 2256
   69.8518  -81.0308  -11.2692 LP  0  0  0  0  0  0  0  0  0  0  0  0  # atno 9690 bound_to 4362
   68.3856  -81.0042  -11.9876 LP  0  0  0  0  0  0  0  0  0  0  0  0  # atno 9691 bound_to 4362
   52.3237  -69.6648   -8.4019 LP  0  0  0  0  0  0  0  0  0  0  0  0  # atno 9698 bound_to 4472
   52.7833  -69.4533   -6.8493 LP  0  0  0  0  0  0  0  0  0  0  0  0  # atno 9699 bound_to 4472
   51.4416  -68.4220   -8.9851 LP  0  0  0  0  0  0  0  0  0  0  0  0  # atno 9700 bound_to 4474
   50.8128  -66.9289   -8.7803 LP  0  0  0  0  0  0  0  0  0  0  0  0  # atno 9701 bound_to 4474
   65.2324  -72.1932  -11.9240 LP  0  0  0  0  0  0  0  0  0  0  0  0  # atno 9709 bound_to 4506
   63.6028  -72.1391  -12.0145 LP  0  0  0  0  0  0  0  0  0  0  0  0  # atno 9710 bound_to 4506
   63.6216  -69.1112  -10.3404 LP  0  0  0  0  0  0  0  0  0  0  0  0  # atno 9711 bound_to 4508
   62.1759  -69.4274  -11.0308 LP  0  0  0  0  0  0  0  0  0  0  0  0  # atno 9712 bound_to 4508
   62.5884  -71.5498   -6.9351 LP  0  0  0  0  0  0  0  0  0  0  0  0  # atno 9713 bound_to 4510
   63.9675  -71.8368   -7.7611 LP  0  0  0  0  0  0  0  0  0  0  0  0  # atno 9714 bound_to 4510

$$$$
