C12H12ClN5O4S|Chlorsulfuron|mol|1|dock31
  -GOLD-   2292219383D 1   1.00000     0.00000
 
 35 36  0  0  0  0  0  0  0  0  1 V2000
   67.1228  -73.0803  -17.4383 C   0  0  0  0  0  0  0  0  0  0  0  0
   66.9495  -73.6657  -16.0604 C   0  0  0  0  0  0  0  0  0  0  0  0
   65.7478  -73.7205  -15.5139 N   0  0  0  0  0  0  0  0  0  0  0  0
   65.5919  -74.2366  -14.2980 C   0  0  0  0  0  0  0  0  0  0  0  0
   66.6457  -74.6968  -13.6340 N   0  0  0  0  0  0  0  0  0  0  0  0
   67.8510  -74.6400  -14.1863 C   0  0  0  0  0  0  0  0  0  0  0  0
   67.9993  -74.1281  -15.4036 N   0  0  0  0  0  0  0  0  0  0  0  0
   68.9273  -75.1075  -13.5125 O   0  0  0  0  0  0  0  0  0  0  0  0
   70.0640  -74.8966  -14.3524 C   0  0  0  0  0  0  0  0  0  0  0  0
   64.3319  -74.2936  -13.7249 N   0  0  0  0  0  0  0  0  0  0  0  0
   63.2660  -74.6387  -14.4740 C   0  0  0  0  0  0  0  0  0  0  0  0
   63.4101  -74.8998  -15.6525 O   0  0  0  0  0  0  0  0  0  0  0  0
   62.0401  -74.6940  -13.9165 N   0  0  0  0  0  0  0  0  0  0  0  0
   60.7136  -74.9942  -14.8614 S   0  0  0  0  0  0  0  0  0  0  0  0
   59.5857  -74.7312  -14.0382 O   0  0  0  0  0  0  0  0  0  0  0  0
   60.9819  -74.3743  -16.1116 O   0  0  0  0  0  0  0  0  0  0  0  0
   60.6776  -76.7260  -15.1838 C   0  0  0  0  0  0  0  0  0  0  0  0
   61.5753  -77.5655  -14.5522 C   0  0  0  0  0  0  0  0  0  0  0  0
   61.5473  -78.9244  -14.8051 C   0  0  0  0  0  0  0  0  0  0  0  0
   60.6216  -79.4442  -15.6902 C   0  0  0  0  0  0  0  0  0  0  0  0
   59.7233  -78.6055  -16.3231 C   0  0  0  0  0  0  0  0  0  0  0  0
   59.7466  -77.2465  -16.0654 C   0  0  0  0  0  0  0  0  0  0  0  0
   58.6184  -76.1927  -16.8594 Cl  0  0  0  0  0  0  0  0  0  0  0  0
   67.3100  -72.0096  -17.3573 H   0  0  0  0  0  0  0  0  0  0  0  0
   67.9668  -73.5603  -17.9335 H   0  0  0  0  0  0  0  0  0  0  0  0
   66.2167  -73.2475  -18.0207 H   0  0  0  0  0  0  0  0  0  0  0  0
   70.9600  -75.2596  -13.8489 H   0  0  0  0  0  0  0  0  0  0  0  0
   69.9290  -75.4376  -15.2890 H   0  0  0  0  0  0  0  0  0  0  0  0
   70.1699  -73.8318  -14.5599 H   0  0  0  0  0  0  0  0  0  0  0  0
   64.2169  -74.0851  -12.7846 H   0  0  0  0  0  0  0  0  0  0  0  0
   61.9349  -74.5581  -12.9619 H   0  0  0  0  0  0  0  0  0  0  0  0
   62.2994  -77.1598  -13.8610 H   0  0  0  0  0  0  0  0  0  0  0  0
   62.2491  -79.5801  -14.3112 H   0  0  0  0  0  0  0  0  0  0  0  0
   60.6003  -80.5058  -15.8877 H   0  0  0  0  0  0  0  0  0  0  0  0
   59.0006  -79.0116  -17.0152 H   0  0  0  0  0  0  0  0  0  0  0  0
  1  2  1  0  0  0  0
  2  3  2  0  0  0  0
  3  4  1  0  0  0  0
  4  5  2  0  0  0  0
  5  6  1  0  0  0  0
  6  7  2  0  0  0  0
  2  7  1  0  0  0  0
  6  8  1  0  0  0  0
  8  9  1  0  0  0  0
  4 10  1  0  0  0  0
 10 11  1  0  0  0  0
 11 12  2  0  0  0  0
 11 13  1  0  0  0  0
 13 14  1  0  0  0  0
 14 15  2  0  0  0  0
 14 16  2  0  0  0  0
 14 17  1  0  0  0  0
 17 18  2  0  0  0  0
 18 19  1  0  0  0  0
 19 20  2  0  0  0  0
 20 21  1  0  0  0  0
 21 22  2  0  0  0  0
 17 22  1  0  0  0  0
 22 23  1  0  0  0  0
  1 24  1  0  0  0  0
  1 25  1  0  0  0  0
  1 26  1  0  0  0  0
  9 27  1  0  0  0  0
  9 28  1  0  0  0  0
  9 29  1  0  0  0  0
 10 30  1  0  0  0  0
 13 31  1  0  0  0  0
 18 32  1  0  0  0  0
 19 33  1  0  0  0  0
 20 34  1  0  0  0  0
 21 35  1  0  0  0  0
M  END
> <Gold.Version>
2021.2.0

> <Gold.Id.Protein>
5K6Q|5K6Q_protein|mol2

> <Gold.PLP.Fitness>
30.5994

> <Gold.PLP.PLP>
-23.3676

> <Gold.PLP.part.hbond>
-4.6604

> <Gold.PLP.part.metal>
0.0000

> <Gold.PLP.part.buried>
-2.8431

> <Gold.PLP.part.nonpolar>
-19.2972

> <Gold.PLP.part.repulsive>
2.9472

> <Gold.PLP.ligand.clash>
2.3334

> <Gold.PLP.ligand.torsion>
2.0896

> <Gold.PLP.Chemscore.Hbond>
3.4918

> <Gold.PLP.Chemscore.CHOScore>
0.0000

> <Gold.PLP.Chemscore.Metal>
0.0000

> <Gold.Chemscore.Hbonds>
donor molecule, donor type, donor heavy atom, donor atom, acceptor molecule, acceptor atom, score
      L1  H    10    30       P1  4506  0.50
      L1  H    13    31       P1  2223  0.99
      P1  H  2204  6935       L1    15  1.00
      P1  H  2240  6967       L1     8  1.00

> <Gold.PLP.Chemscore.Internal.Correction>
3.2693

> <Gold.Protein.RotatedTorsions>
[ 6459 1704 1703 1701 ] final   -1.65 input   60.01 | X-H torsion
[ 6656 1882 1881 1878 ] final  -31.88 input   60.00 | X-H torsion
[ 7002 2256 2255 2252 ] final -123.27 input   60.00 | X-H torsion
[ 6986 2270 2269 2268 ] final    6.81 input   59.99 | X-H torsion
[ 9089 4362 4361 4358 ] final   74.19 input   60.01 | X-H torsion
[ 9191 4472 4471 4469 ] final   48.39 input   60.00 | X-H torsion
[ 9201 4474 4473 4471 ] final  -15.96 input   60.00 | X-H torsion
[ 9219 4506 4505 4504 ] final  -45.60 input   60.00 | X-H torsion
[ 9220 4508 4507 4505 ] final  124.80 input   60.00 | X-H torsion
[ 9214 4510 4509 4507 ] final  -64.48 input   60.00 | X-H torsion

> <Gold.Protein.ActiveResidues>
 TYR305  THR331  LEU332  MET333  LEU349  GLY350  MET351  HIS352  GLY353  ASN358 
 VAL372  ARG373  PHE374  ASP375  ASP376  ARG377  VAL378  THR379  GLY380  LYS381 
 LEU382  PHE385  ASN404  GLY508  GLY509  TRP574  ILE651  PRO652  SER653  GLY654 
 GLY655  FAD702  HOH839  HOH865  HOH881  HOH913  HOH945  HOH958  HOH960  HOH966 
 HOH968 

> <Gold.Protein.RotatedAtoms>
   61.0382  -73.0165   -3.4935 H   0  0  0  0  0  0  0  0  0  0  0  0  # atno 6459 bound_to 1704
   62.4234  -66.9587   -4.1295 H   0  0  0  0  0  0  0  0  0  0  0  0  # atno 6656 bound_to 1882
   63.0804  -90.5783   -2.3558 H   0  0  0  0  0  0  0  0  0  0  0  0  # atno 6986 bound_to 2270
   63.2057  -89.6077   -1.0181 H   0  0  0  0  0  0  0  0  0  0  0  0  # atno 6987 bound_to 2270
   61.7117  -90.0229   -1.6037 H   0  0  0  0  0  0  0  0  0  0  0  0  # atno 6988 bound_to 2270
   60.6651  -79.5442   -5.8696 H   0  0  0  0  0  0  0  0  0  0  0  0  # atno 7002 bound_to 2256
   70.2260  -81.3046  -11.8718 H   0  0  0  0  0  0  0  0  0  0  0  0  # atno 9089 bound_to 4362
   52.8495  -69.4773   -6.8368 H   0  0  0  0  0  0  0  0  0  0  0  0  # atno 9191 bound_to 4472
   51.4434  -68.5256   -8.8166 H   0  0  0  0  0  0  0  0  0  0  0  0  # atno 9201 bound_to 4474
   62.3431  -72.4351   -8.0633 H   0  0  0  0  0  0  0  0  0  0  0  0  # atno 9214 bound_to 4510
   64.5562  -71.7686  -12.1820 H   0  0  0  0  0  0  0  0  0  0  0  0  # atno 9219 bound_to 4506
   62.3468  -69.7529  -11.5051 H   0  0  0  0  0  0  0  0  0  0  0  0  # atno 9220 bound_to 4508
   59.4699  -73.4096   -3.6775 LP  0  0  0  0  0  0  0  0  0  0  0  0  # atno 9615 bound_to 1704
   60.5174  -74.4922   -3.0472 LP  0  0  0  0  0  0  0  0  0  0  0  0  # atno 9616 bound_to 1704
   61.3462  -67.9637   -4.8208 LP  0  0  0  0  0  0  0  0  0  0  0  0  # atno 9619 bound_to 1882
   62.6386  -67.4384   -5.6696 LP  0  0  0  0  0  0  0  0  0  0  0  0  # atno 9620 bound_to 1882
   60.9913  -81.0659   -5.3942 LP  0  0  0  0  0  0  0  0  0  0  0  0  # atno 9664 bound_to 2256
   62.2058  -80.0666   -5.8336 LP  0  0  0  0  0  0  0  0  0  0  0  0  # atno 9665 bound_to 2256
   68.7563  -80.8535  -11.3381 LP  0  0  0  0  0  0  0  0  0  0  0  0  # atno 9690 bound_to 4362
   68.9408  -81.4010  -12.8654 LP  0  0  0  0  0  0  0  0  0  0  0  0  # atno 9691 bound_to 4362
   53.7641  -70.2011   -7.9716 LP  0  0  0  0  0  0  0  0  0  0  0  0  # atno 9698 bound_to 4472
   52.2817  -69.6328   -8.3539 LP  0  0  0  0  0  0  0  0  0  0  0  0  # atno 9699 bound_to 4472
   50.8830  -67.0037   -8.9501 LP  0  0  0  0  0  0  0  0  0  0  0  0  # atno 9700 bound_to 4474
   50.8319  -67.7723   -7.5102 LP  0  0  0  0  0  0  0  0  0  0  0  0  # atno 9701 bound_to 4474
   63.5049  -72.8720  -11.6115 LP  0  0  0  0  0  0  0  0  0  0  0  0  # atno 9709 bound_to 4506
   65.1115  -73.0985  -11.4262 LP  0  0  0  0  0  0  0  0  0  0  0  0  # atno 9710 bound_to 4506
   63.9645  -69.7843  -11.3318 LP  0  0  0  0  0  0  0  0  0  0  0  0  # atno 9711 bound_to 4508
   63.0389  -68.9949  -10.2424 LP  0  0  0  0  0  0  0  0  0  0  0  0  # atno 9712 bound_to 4508
   62.8687  -71.4459   -6.8829 LP  0  0  0  0  0  0  0  0  0  0  0  0  # atno 9713 bound_to 4510
   63.9156  -72.0219   -7.9959 LP  0  0  0  0  0  0  0  0  0  0  0  0  # atno 9714 bound_to 4510

$$$$
