C12H12ClN5O4S|Chlorsulfuron|mol|1|dock30
  -GOLD-   2292219383D 1   1.00000     0.00000
 
 35 36  0  0  0  0  0  0  0  0  1 V2000
   63.1680  -74.2743  -18.9617 C   0  0  0  0  0  0  0  0  0  0  0  0
   64.0412  -74.6621  -17.7962 C   0  0  0  0  0  0  0  0  0  0  0  0
   63.7115  -75.6946  -17.0404 N   0  0  0  0  0  0  0  0  0  0  0  0
   64.4804  -76.0391  -16.0112 C   0  0  0  0  0  0  0  0  0  0  0  0
   65.5798  -75.3440  -15.7441 N   0  0  0  0  0  0  0  0  0  0  0  0
   65.9075  -74.3078  -16.5055 C   0  0  0  0  0  0  0  0  0  0  0  0
   65.1381  -73.9719  -17.5356 N   0  0  0  0  0  0  0  0  0  0  0  0
   67.0268  -73.5968  -16.2361 O   0  0  0  0  0  0  0  0  0  0  0  0
   66.8893  -73.0992  -14.9036 C   0  0  0  0  0  0  0  0  0  0  0  0
   64.1343  -77.1214  -15.2186 N   0  0  0  0  0  0  0  0  0  0  0  0
   64.5370  -78.3618  -15.5587 C   0  0  0  0  0  0  0  0  0  0  0  0
   65.2039  -78.5309  -16.5609 O   0  0  0  0  0  0  0  0  0  0  0  0
   64.2003  -79.4147  -14.7877 N   0  0  0  0  0  0  0  0  0  0  0  0
   64.5861  -80.9512  -15.2701 S   0  0  0  0  0  0  0  0  0  0  0  0
   65.8998  -80.8694  -15.8055 O   0  0  0  0  0  0  0  0  0  0  0  0
   64.1832  -81.8026  -14.2061 O   0  0  0  0  0  0  0  0  0  0  0  0
   63.5397  -81.3552  -16.6288 C   0  0  0  0  0  0  0  0  0  0  0  0
   64.0740  -81.4921  -17.8959 C   0  0  0  0  0  0  0  0  0  0  0  0
   63.2530  -81.8089  -18.9622 C   0  0  0  0  0  0  0  0  0  0  0  0
   61.8973  -81.9885  -18.7617 C   0  0  0  0  0  0  0  0  0  0  0  0
   61.3614  -81.8514  -17.4949 C   0  0  0  0  0  0  0  0  0  0  0  0
   62.1835  -81.5408  -16.4265 C   0  0  0  0  0  0  0  0  0  0  0  0
   61.5114  -81.3690  -14.8351 Cl  0  0  0  0  0  0  0  0  0  0  0  0
   62.4155  -73.5591  -18.6297 H   0  0  0  0  0  0  0  0  0  0  0  0
   63.7816  -73.8211  -19.7403 H   0  0  0  0  0  0  0  0  0  0  0  0
   62.6755  -75.1623  -19.3579 H   0  0  0  0  0  0  0  0  0  0  0  0
   67.7723  -72.5167  -14.6404 H   0  0  0  0  0  0  0  0  0  0  0  0
   66.0044  -72.4659  -14.8417 H   0  0  0  0  0  0  0  0  0  0  0  0
   66.7865  -73.9356  -14.2122 H   0  0  0  0  0  0  0  0  0  0  0  0
   63.6021  -76.9864  -14.4189 H   0  0  0  0  0  0  0  0  0  0  0  0
   63.7320  -79.2725  -13.9502 H   0  0  0  0  0  0  0  0  0  0  0  0
   65.1332  -81.3512  -18.0533 H   0  0  0  0  0  0  0  0  0  0  0  0
   63.6710  -81.9159  -19.9523 H   0  0  0  0  0  0  0  0  0  0  0  0
   61.2564  -82.2358  -19.5952 H   0  0  0  0  0  0  0  0  0  0  0  0
   60.3020  -81.9910  -17.3385 H   0  0  0  0  0  0  0  0  0  0  0  0
  1  2  1  0  0  0  0
  2  3  2  0  0  0  0
  3  4  1  0  0  0  0
  4  5  2  0  0  0  0
  5  6  1  0  0  0  0
  6  7  2  0  0  0  0
  2  7  1  0  0  0  0
  6  8  1  0  0  0  0
  8  9  1  0  0  0  0
  4 10  1  0  0  0  0
 10 11  1  0  0  0  0
 11 12  2  0  0  0  0
 11 13  1  0  0  0  0
 13 14  1  0  0  0  0
 14 15  2  0  0  0  0
 14 16  2  0  0  0  0
 14 17  1  0  0  0  0
 17 18  2  0  0  0  0
 18 19  1  0  0  0  0
 19 20  2  0  0  0  0
 20 21  1  0  0  0  0
 21 22  2  0  0  0  0
 17 22  1  0  0  0  0
 22 23  1  0  0  0  0
  1 24  1  0  0  0  0
  1 25  1  0  0  0  0
  1 26  1  0  0  0  0
  9 27  1  0  0  0  0
  9 28  1  0  0  0  0
  9 29  1  0  0  0  0
 10 30  1  0  0  0  0
 13 31  1  0  0  0  0
 18 32  1  0  0  0  0
 19 33  1  0  0  0  0
 20 34  1  0  0  0  0
 21 35  1  0  0  0  0
M  END
> <Gold.Version>
2021.2.0

> <Gold.Id.Protein>
5K6Q|5K6Q_protein|mol2

> <Gold.PLP.Fitness>
22.9029

> <Gold.PLP.PLP>
-18.4712

> <Gold.PLP.part.hbond>
-5.3690

> <Gold.PLP.part.metal>
0.0000

> <Gold.PLP.part.buried>
-4.9853

> <Gold.PLP.part.nonpolar>
-9.9849

> <Gold.PLP.part.repulsive>
1.4741

> <Gold.PLP.ligand.clash>
0.0000

> <Gold.PLP.ligand.torsion>
2.2628

> <Gold.PLP.Chemscore.Hbond>
1.8960

> <Gold.PLP.Chemscore.CHOScore>
0.0000

> <Gold.PLP.Chemscore.Metal>
0.0000

> <Gold.Chemscore.Hbonds>
donor molecule, donor type, donor heavy atom, donor atom, acceptor molecule, acceptor atom, score
      L1  H    13    31       P1  2232  0.90
      P1  H  4724  9546       L1    15  1.00

> <Gold.PLP.Chemscore.Internal.Correction>
3.2693

> <Gold.Protein.RotatedTorsions>
[ 6459 1704 1703 1701 ] final  -67.46 input   60.01 | X-H torsion
[ 6656 1882 1881 1878 ] final  165.95 input   60.00 | X-H torsion
[ 7002 2256 2255 2252 ] final  -91.78 input   60.00 | X-H torsion
[ 6986 2270 2269 2268 ] final  -31.90 input   59.99 | X-H torsion
[ 9089 4362 4361 4358 ] final    0.86 input   60.01 | X-H torsion
[ 9191 4472 4471 4469 ] final  -74.92 input   60.00 | X-H torsion
[ 9201 4474 4473 4471 ] final -177.33 input   60.00 | X-H torsion
[ 9219 4506 4505 4504 ] final  131.75 input   60.00 | X-H torsion
[ 9220 4508 4507 4505 ] final  135.33 input   60.00 | X-H torsion
[ 9214 4510 4509 4507 ] final   19.62 input   60.00 | X-H torsion

> <Gold.Protein.ActiveResidues>
 TYR305  THR331  LEU332  MET333  LEU349  GLY350  MET351  HIS352  GLY353  ASN358 
 VAL372  ARG373  PHE374  ASP375  ASP376  ARG377  VAL378  THR379  GLY380  LYS381 
 LEU382  PHE385  ASN404  GLY508  GLY509  TRP574  ILE651  PRO652  SER653  GLY654 
 GLY655  FAD702  HOH839  HOH865  HOH881  HOH913  HOH945  HOH958  HOH960  HOH966 
 HOH968 

> <Gold.Protein.RotatedAtoms>
   60.0801  -72.8169   -3.7708 H   0  0  0  0  0  0  0  0  0  0  0  0  # atno 6459 bound_to 1704
   61.6386  -68.0172   -5.4280 H   0  0  0  0  0  0  0  0  0  0  0  0  # atno 6656 bound_to 1882
   62.4499  -90.6165   -2.4142 H   0  0  0  0  0  0  0  0  0  0  0  0  # atno 6986 bound_to 2270
   63.5814  -89.9098   -1.4304 H   0  0  0  0  0  0  0  0  0  0  0  0  # atno 6987 bound_to 2270
   61.9667  -89.6826   -1.1328 H   0  0  0  0  0  0  0  0  0  0  0  0  # atno 6988 bound_to 2270
   61.1203  -79.3450   -5.9759 H   0  0  0  0  0  0  0  0  0  0  0  0  # atno 7002 bound_to 2256
   69.4712  -80.9208  -11.1416 H   0  0  0  0  0  0  0  0  0  0  0  0  # atno 9089 bound_to 4362
   53.7394  -70.2005   -8.0203 H   0  0  0  0  0  0  0  0  0  0  0  0  # atno 9191 bound_to 4472
   50.6965  -66.9102   -8.3200 H   0  0  0  0  0  0  0  0  0  0  0  0  # atno 9201 bound_to 4474
   63.5660  -72.3440   -8.3265 H   0  0  0  0  0  0  0  0  0  0  0  0  # atno 9214 bound_to 4510
   64.2690  -73.3906  -11.2927 H   0  0  0  0  0  0  0  0  0  0  0  0  # atno 9219 bound_to 4506
   62.2628  -69.6662  -11.3830 H   0  0  0  0  0  0  0  0  0  0  0  0  # atno 9220 bound_to 4508
   59.7085  -74.3237   -3.2813 LP  0  0  0  0  0  0  0  0  0  0  0  0  # atno 9615 bound_to 1704
   61.2436  -73.7793   -3.1641 LP  0  0  0  0  0  0  0  0  0  0  0  0  # atno 9616 bound_to 1704
   62.9264  -67.0503   -5.1934 LP  0  0  0  0  0  0  0  0  0  0  0  0  # atno 9619 bound_to 1882
   61.8486  -67.2860   -3.9895 LP  0  0  0  0  0  0  0  0  0  0  0  0  # atno 9620 bound_to 1882
   60.5687  -80.7832   -5.4512 LP  0  0  0  0  0  0  0  0  0  0  0  0  # atno 9664 bound_to 2256
   62.1701  -80.5500   -5.6696 LP  0  0  0  0  0  0  0  0  0  0  0  0  # atno 9665 bound_to 2256
   68.4366  -81.1447  -12.3776 LP  0  0  0  0  0  0  0  0  0  0  0  0  # atno 9690 bound_to 4362
   70.0206  -81.4963  -12.5612 LP  0  0  0  0  0  0  0  0  0  0  0  0  # atno 9691 bound_to 4362
   52.2523  -69.6089   -8.3148 LP  0  0  0  0  0  0  0  0  0  0  0  0  # atno 9698 bound_to 4472
   52.8973  -69.4967   -6.8188 LP  0  0  0  0  0  0  0  0  0  0  0  0  # atno 9699 bound_to 4472
   51.1012  -68.3547   -7.6892 LP  0  0  0  0  0  0  0  0  0  0  0  0  # atno 9700 bound_to 4474
   51.3659  -68.0482   -9.2712 LP  0  0  0  0  0  0  0  0  0  0  0  0  # atno 9701 bound_to 4474
   65.2619  -72.2490  -11.8920 LP  0  0  0  0  0  0  0  0  0  0  0  0  # atno 9709 bound_to 4506
   63.6438  -72.0880  -12.0413 LP  0  0  0  0  0  0  0  0  0  0  0  0  # atno 9710 bound_to 4506
   63.8767  -69.8596  -11.4603 LP  0  0  0  0  0  0  0  0  0  0  0  0  # atno 9711 bound_to 4508
   63.2113  -69.0070  -10.2368 LP  0  0  0  0  0  0  0  0  0  0  0  0  # atno 9712 bound_to 4508
   62.1176  -72.1559   -7.6089 LP  0  0  0  0  0  0  0  0  0  0  0  0  # atno 9713 bound_to 4510
   63.4352  -71.4037   -7.0048 LP  0  0  0  0  0  0  0  0  0  0  0  0  # atno 9714 bound_to 4510

$$$$
