C12H12ClN5O4S|Chlorsulfuron|mol|1|dock19
  -GOLD-   2292219383D 1   1.00000     0.00000
 
 35 36  0  0  0  0  0  0  0  0  1 V2000
   58.8201  -77.5112  -17.7406 C   0  0  0  0  0  0  0  0  0  0  0  0
   59.5457  -76.9959  -16.5244 C   0  0  0  0  0  0  0  0  0  0  0  0
   60.5851  -77.6577  -16.0473 N   0  0  0  0  0  0  0  0  0  0  0  0
   61.2274  -77.2052  -14.9741 C   0  0  0  0  0  0  0  0  0  0  0  0
   60.8227  -76.0874  -14.3826 N   0  0  0  0  0  0  0  0  0  0  0  0
   59.7785  -75.4256  -14.8647 C   0  0  0  0  0  0  0  0  0  0  0  0
   59.1443  -75.8799  -15.9405 N   0  0  0  0  0  0  0  0  0  0  0  0
   59.3628  -74.2864  -14.2644 O   0  0  0  0  0  0  0  0  0  0  0  0
   59.4590  -73.2466  -15.2398 C   0  0  0  0  0  0  0  0  0  0  0  0
   62.3169  -77.8994  -14.4738 N   0  0  0  0  0  0  0  0  0  0  0  0
   63.1261  -78.5778  -15.3114 C   0  0  0  0  0  0  0  0  0  0  0  0
   62.8999  -78.5805  -16.5058 O   0  0  0  0  0  0  0  0  0  0  0  0
   64.1860  -79.2533  -14.8247 N   0  0  0  0  0  0  0  0  0  0  0  0
   65.1065  -80.1887  -15.8347 S   0  0  0  0  0  0  0  0  0  0  0  0
   65.1723  -79.4798  -17.0644 O   0  0  0  0  0  0  0  0  0  0  0  0
   66.2256  -80.6036  -15.0635 O   0  0  0  0  0  0  0  0  0  0  0  0
   64.1903  -81.6546  -16.1757 C   0  0  0  0  0  0  0  0  0  0  0  0
   63.4137  -82.2297  -15.1879 C   0  0  0  0  0  0  0  0  0  0  0  0
   62.6948  -83.3800  -15.4552 C   0  0  0  0  0  0  0  0  0  0  0  0
   62.7527  -83.9558  -16.7105 C   0  0  0  0  0  0  0  0  0  0  0  0
   63.5296  -83.3817  -17.6994 C   0  0  0  0  0  0  0  0  0  0  0  0
   64.2439  -82.2271  -17.4343 C   0  0  0  0  0  0  0  0  0  0  0  0
   65.2193  -81.5053  -18.6758 Cl  0  0  0  0  0  0  0  0  0  0  0  0
   58.0195  -78.1821  -17.4289 H   0  0  0  0  0  0  0  0  0  0  0  0
   58.3968  -76.6727  -18.2935 H   0  0  0  0  0  0  0  0  0  0  0  0
   59.5191  -78.0517  -18.3789 H   0  0  0  0  0  0  0  0  0  0  0  0
   59.1328  -72.3042  -14.7997 H   0  0  0  0  0  0  0  0  0  0  0  0
   60.4932  -73.1540  -15.5714 H   0  0  0  0  0  0  0  0  0  0  0  0
   58.8244  -73.4884  -16.0925 H   0  0  0  0  0  0  0  0  0  0  0  0
   62.4974  -77.8973  -13.5207 H   0  0  0  0  0  0  0  0  0  0  0  0
   64.4097  -79.1914  -13.8830 H   0  0  0  0  0  0  0  0  0  0  0  0
   63.3686  -81.7807  -14.2066 H   0  0  0  0  0  0  0  0  0  0  0  0
   62.0880  -83.8292  -14.6829 H   0  0  0  0  0  0  0  0  0  0  0  0
   62.1911  -84.8546  -16.9186 H   0  0  0  0  0  0  0  0  0  0  0  0
   63.5754  -83.8321  -18.6798 H   0  0  0  0  0  0  0  0  0  0  0  0
  1  2  1  0  0  0  0
  2  3  2  0  0  0  0
  3  4  1  0  0  0  0
  4  5  2  0  0  0  0
  5  6  1  0  0  0  0
  6  7  2  0  0  0  0
  2  7  1  0  0  0  0
  6  8  1  0  0  0  0
  8  9  1  0  0  0  0
  4 10  1  0  0  0  0
 10 11  1  0  0  0  0
 11 12  2  0  0  0  0
 11 13  1  0  0  0  0
 13 14  1  0  0  0  0
 14 15  2  0  0  0  0
 14 16  2  0  0  0  0
 14 17  1  0  0  0  0
 17 18  2  0  0  0  0
 18 19  1  0  0  0  0
 19 20  2  0  0  0  0
 20 21  1  0  0  0  0
 21 22  2  0  0  0  0
 17 22  1  0  0  0  0
 22 23  1  0  0  0  0
  1 24  1  0  0  0  0
  1 25  1  0  0  0  0
  1 26  1  0  0  0  0
  9 27  1  0  0  0  0
  9 28  1  0  0  0  0
  9 29  1  0  0  0  0
 10 30  1  0  0  0  0
 13 31  1  0  0  0  0
 18 32  1  0  0  0  0
 19 33  1  0  0  0  0
 20 34  1  0  0  0  0
 21 35  1  0  0  0  0
M  END
> <Gold.Version>
2021.2.0

> <Gold.Id.Protein>
5K6Q|5K6Q_protein|mol2

> <Gold.PLP.Fitness>
30.4453

> <Gold.PLP.PLP>
-16.3139

> <Gold.PLP.part.hbond>
-7.3950

> <Gold.PLP.part.metal>
0.0000

> <Gold.PLP.part.buried>
-4.9976

> <Gold.PLP.part.nonpolar>
-5.0524

> <Gold.PLP.part.repulsive>
0.4764

> <Gold.PLP.ligand.clash>
0.0000

> <Gold.PLP.ligand.torsion>
1.8790

> <Gold.PLP.Chemscore.Hbond>
4.8720

> <Gold.PLP.Chemscore.CHOScore>
0.0000

> <Gold.PLP.Chemscore.Metal>
0.0000

> <Gold.Chemscore.Hbonds>
donor molecule, donor type, donor heavy atom, donor atom, acceptor molecule, acceptor atom, score
      L1  H    10    30       P1  2231  1.00
      L1  H    13    31       P1  2232  0.94
      P1  H  2204  6935       L1     8  1.00
      P1  H  2243  6968       L1    16  0.93
      P1  H  4724  9546       L1    16  1.00

> <Gold.PLP.Chemscore.Internal.Correction>
3.2734

> <Gold.Protein.RotatedTorsions>
[ 6459 1704 1703 1701 ] final -106.16 input   60.01 | X-H torsion
[ 6656 1882 1881 1878 ] final  113.67 input   60.00 | X-H torsion
[ 7002 2256 2255 2252 ] final   -7.67 input   60.00 | X-H torsion
[ 6986 2270 2269 2268 ] final   48.78 input   59.99 | X-H torsion
[ 9089 4362 4361 4358 ] final -139.99 input   60.01 | X-H torsion
[ 9191 4472 4471 4469 ] final  -19.78 input   60.00 | X-H torsion
[ 9201 4474 4473 4471 ] final   69.17 input   60.00 | X-H torsion
[ 9219 4506 4505 4504 ] final    8.91 input   60.00 | X-H torsion
[ 9220 4508 4507 4505 ] final   63.74 input   60.00 | X-H torsion
[ 9214 4510 4509 4507 ] final  167.27 input   60.00 | X-H torsion

> <Gold.Protein.ActiveResidues>
 TYR305  THR331  LEU332  MET333  LEU349  GLY350  MET351  HIS352  GLY353  ASN358 
 VAL372  ARG373  PHE374  ASP375  ASP376  ARG377  VAL378  THR379  GLY380  LYS381 
 LEU382  PHE385  ASN404  GLY508  GLY509  TRP574  ILE651  PRO652  SER653  GLY654 
 GLY655  FAD702  HOH839  HOH865  HOH881  HOH913  HOH945  HOH958  HOH960  HOH966 
 HOH968 

> <Gold.Protein.RotatedAtoms>
   59.5876  -73.1922   -3.7325 H   0  0  0  0  0  0  0  0  0  0  0  0  # atno 6459 bound_to 1704
   62.3210  -67.6916   -5.7579 H   0  0  0  0  0  0  0  0  0  0  0  0  # atno 6656 bound_to 1882
   63.5510  -90.2875   -1.9511 H   0  0  0  0  0  0  0  0  0  0  0  0  # atno 6986 bound_to 2270
   62.5388  -89.5118   -0.8922 H   0  0  0  0  0  0  0  0  0  0  0  0  # atno 6987 bound_to 2270
   61.9081  -90.4097   -2.1345 H   0  0  0  0  0  0  0  0  0  0  0  0  # atno 6988 bound_to 2270
   62.1823  -80.0002   -5.8512 H   0  0  0  0  0  0  0  0  0  0  0  0  # atno 7002 bound_to 2256
   68.6109  -81.2682  -12.6423 H   0  0  0  0  0  0  0  0  0  0  0  0  # atno 9089 bound_to 4362
   53.7112  -69.9626   -7.1875 H   0  0  0  0  0  0  0  0  0  0  0  0  # atno 9191 bound_to 4472
   51.0589  -68.2718   -7.6369 H   0  0  0  0  0  0  0  0  0  0  0  0  # atno 9201 bound_to 4474
   63.0009  -71.4187   -6.8918 H   0  0  0  0  0  0  0  0  0  0  0  0  # atno 9214 bound_to 4510
   65.2370  -72.2134  -11.9100 H   0  0  0  0  0  0  0  0  0  0  0  0  # atno 9219 bound_to 4506
   63.2077  -70.0249  -11.8047 H   0  0  0  0  0  0  0  0  0  0  0  0  # atno 9220 bound_to 4508
   60.2685  -74.5224   -3.0882 LP  0  0  0  0  0  0  0  0  0  0  0  0  # atno 9615 bound_to 1704
   61.1796  -73.2026   -3.3958 LP  0  0  0  0  0  0  0  0  0  0  0  0  # atno 9616 bound_to 1704
   62.7178  -66.8713   -4.4095 LP  0  0  0  0  0  0  0  0  0  0  0  0  # atno 9619 bound_to 1882
   61.3700  -67.7928   -4.4412 LP  0  0  0  0  0  0  0  0  0  0  0  0  # atno 9620 bound_to 1882
   60.6085  -79.5865   -5.8530 LP  0  0  0  0  0  0  0  0  0  0  0  0  # atno 9664 bound_to 2256
   61.0607  -81.0868   -5.3934 LP  0  0  0  0  0  0  0  0  0  0  0  0  # atno 9665 bound_to 2256
   70.1870  -81.4291  -12.2709 LP  0  0  0  0  0  0  0  0  0  0  0  0  # atno 9690 bound_to 4362
   69.1364  -80.8621  -11.1567 LP  0  0  0  0  0  0  0  0  0  0  0  0  # atno 9691 bound_to 4362
   52.9585  -70.0139   -8.6293 LP  0  0  0  0  0  0  0  0  0  0  0  0  # atno 9698 bound_to 4472
   52.2195  -69.3313   -7.3430 LP  0  0  0  0  0  0  0  0  0  0  0  0  # atno 9699 bound_to 4472
   51.3907  -68.1411   -9.2246 LP  0  0  0  0  0  0  0  0  0  0  0  0  # atno 9700 bound_to 4474
   50.7114  -66.8905   -8.4238 LP  0  0  0  0  0  0  0  0  0  0  0  0  # atno 9701 bound_to 4474
   63.6162  -72.1215  -12.0237 LP  0  0  0  0  0  0  0  0  0  0  0  0  # atno 9709 bound_to 4506
   64.3147  -73.4010  -11.2879 LP  0  0  0  0  0  0  0  0  0  0  0  0  # atno 9710 bound_to 4506
   63.8783  -69.2602  -10.5345 LP  0  0  0  0  0  0  0  0  0  0  0  0  # atno 9711 bound_to 4508
   62.2581  -69.2451  -10.7379 LP  0  0  0  0  0  0  0  0  0  0  0  0  # atno 9712 bound_to 4508
   63.8627  -72.1037   -8.0902 LP  0  0  0  0  0  0  0  0  0  0  0  0  # atno 9713 bound_to 4510
   62.2592  -72.3877   -7.9683 LP  0  0  0  0  0  0  0  0  0  0  0  0  # atno 9714 bound_to 4510

$$$$
