C12H12ClN5O4S|Chlorsulfuron|mol|1|dock10
  -GOLD-   2292219383D 1   1.00000     0.00000
 
 35 36  0  0  0  0  0  0  0  0  1 V2000
   64.5554  -74.9431  -17.7536 C   0  0  0  0  0  0  0  0  0  0  0  0
   64.4988  -74.8614  -16.2498 C   0  0  0  0  0  0  0  0  0  0  0  0
   63.5433  -75.4927  -15.5909 N   0  0  0  0  0  0  0  0  0  0  0  0
   63.4909  -75.4223  -14.2636 C   0  0  0  0  0  0  0  0  0  0  0  0
   64.4003  -74.7166  -13.6017 N   0  0  0  0  0  0  0  0  0  0  0  0
   65.3584  -74.0840  -14.2671 C   0  0  0  0  0  0  0  0  0  0  0  0
   65.4084  -74.1627  -15.5926 N   0  0  0  0  0  0  0  0  0  0  0  0
   66.2865  -73.3635  -13.5960 O   0  0  0  0  0  0  0  0  0  0  0  0
   67.5450  -74.0036  -13.8163 C   0  0  0  0  0  0  0  0  0  0  0  0
   62.4887  -76.0839  -13.5730 N   0  0  0  0  0  0  0  0  0  0  0  0
   61.1982  -75.8945  -13.9124 C   0  0  0  0  0  0  0  0  0  0  0  0
   60.9137  -75.1429  -14.8245 O   0  0  0  0  0  0  0  0  0  0  0  0
   60.2232  -76.5381  -13.2404 N   0  0  0  0  0  0  0  0  0  0  0  0
   58.6341  -76.2109  -13.5722 S   0  0  0  0  0  0  0  0  0  0  0  0
   57.8896  -76.8006  -12.5152 O   0  0  0  0  0  0  0  0  0  0  0  0
   58.5915  -74.8398  -13.9430 O   0  0  0  0  0  0  0  0  0  0  0  0
   58.2023  -77.1127  -15.0230 C   0  0  0  0  0  0  0  0  0  0  0  0
   58.3632  -76.5363  -16.2686 C   0  0  0  0  0  0  0  0  0  0  0  0
   58.0244  -77.2437  -17.4071 C   0  0  0  0  0  0  0  0  0  0  0  0
   57.5240  -78.5277  -17.3002 C   0  0  0  0  0  0  0  0  0  0  0  0
   57.3621  -79.1053  -16.0548 C   0  0  0  0  0  0  0  0  0  0  0  0
   57.7071  -78.4003  -14.9156 C   0  0  0  0  0  0  0  0  0  0  0  0
   57.5046  -79.1252  -13.3512 Cl  0  0  0  0  0  0  0  0  0  0  0  0
   63.9716  -74.1295  -18.1840 H   0  0  0  0  0  0  0  0  0  0  0  0
   65.5911  -74.8611  -18.0832 H   0  0  0  0  0  0  0  0  0  0  0  0
   64.1443  -75.8980  -18.0813 H   0  0  0  0  0  0  0  0  0  0  0  0
   68.3280  -73.4557  -13.2921 H   0  0  0  0  0  0  0  0  0  0  0  0
   67.5032  -75.0260  -13.4408 H   0  0  0  0  0  0  0  0  0  0  0  0
   67.7636  -74.0174  -14.8840 H   0  0  0  0  0  0  0  0  0  0  0  0
   62.7158  -76.6836  -12.8451 H   0  0  0  0  0  0  0  0  0  0  0  0
   60.4523  -77.1930  -12.5627 H   0  0  0  0  0  0  0  0  0  0  0  0
   58.7535  -75.5327  -16.3527 H   0  0  0  0  0  0  0  0  0  0  0  0
   58.1503  -76.7928  -18.3803 H   0  0  0  0  0  0  0  0  0  0  0  0
   57.2592  -79.0798  -18.1899 H   0  0  0  0  0  0  0  0  0  0  0  0
   56.9704  -80.1083  -15.9713 H   0  0  0  0  0  0  0  0  0  0  0  0
  1  2  1  0  0  0  0
  2  3  2  0  0  0  0
  3  4  1  0  0  0  0
  4  5  2  0  0  0  0
  5  6  1  0  0  0  0
  6  7  2  0  0  0  0
  2  7  1  0  0  0  0
  6  8  1  0  0  0  0
  8  9  1  0  0  0  0
  4 10  1  0  0  0  0
 10 11  1  0  0  0  0
 11 12  2  0  0  0  0
 11 13  1  0  0  0  0
 13 14  1  0  0  0  0
 14 15  2  0  0  0  0
 14 16  2  0  0  0  0
 14 17  1  0  0  0  0
 17 18  2  0  0  0  0
 18 19  1  0  0  0  0
 19 20  2  0  0  0  0
 20 21  1  0  0  0  0
 21 22  2  0  0  0  0
 17 22  1  0  0  0  0
 22 23  1  0  0  0  0
  1 24  1  0  0  0  0
  1 25  1  0  0  0  0
  1 26  1  0  0  0  0
  9 27  1  0  0  0  0
  9 28  1  0  0  0  0
  9 29  1  0  0  0  0
 10 30  1  0  0  0  0
 13 31  1  0  0  0  0
 18 32  1  0  0  0  0
 19 33  1  0  0  0  0
 20 34  1  0  0  0  0
 21 35  1  0  0  0  0
M  END
> <Gold.Version>
2021.2.0

> <Gold.Id.Protein>
5K6Q|5K6Q_protein|mol2

> <Gold.PLP.Fitness>
27.2459

> <Gold.PLP.PLP>
-21.5263

> <Gold.PLP.part.hbond>
-7.4432

> <Gold.PLP.part.metal>
0.0000

> <Gold.PLP.part.buried>
-3.4627

> <Gold.PLP.part.nonpolar>
-12.4171

> <Gold.PLP.part.repulsive>
1.0106

> <Gold.PLP.ligand.clash>
0.0000

> <Gold.PLP.ligand.torsion>
1.9536

> <Gold.PLP.Chemscore.Hbond>
2.1178

> <Gold.PLP.Chemscore.CHOScore>
0.0000

> <Gold.PLP.Chemscore.Metal>
0.0000

> <Gold.Chemscore.Hbonds>
donor molecule, donor type, donor heavy atom, donor atom, acceptor molecule, acceptor atom, score
      L1  H    10    30       P1  2231  1.00
      L1  H    13    31       P1  2231  0.14
      P1  H  2204  6935       L1    16  0.78
      P1  H  4506  9219       L1     8  0.19

> <Gold.PLP.Chemscore.Internal.Correction>
3.2734

> <Gold.Protein.RotatedTorsions>
[ 6459 1704 1703 1701 ] final  -91.23 input   60.01 | X-H torsion
[ 6656 1882 1881 1878 ] final   90.35 input   60.00 | X-H torsion
[ 7002 2256 2255 2252 ] final  -78.51 input   60.00 | X-H torsion
[ 6986 2270 2269 2268 ] final   48.90 input   59.99 | X-H torsion
[ 9089 4362 4361 4358 ] final   74.18 input   60.01 | X-H torsion
[ 9191 4472 4471 4469 ] final  109.82 input   60.00 | X-H torsion
[ 9201 4474 4473 4471 ] final   36.67 input   60.00 | X-H torsion
[ 9219 4506 4505 4504 ] final   -1.09 input   60.00 | X-H torsion
[ 9220 4508 4507 4505 ] final  -66.70 input   60.00 | X-H torsion
[ 9214 4510 4509 4507 ] final   64.97 input   60.00 | X-H torsion

> <Gold.Protein.ActiveResidues>
 TYR305  THR331  LEU332  MET333  LEU349  GLY350  MET351  HIS352  GLY353  ASN358 
 VAL372  ARG373  PHE374  ASP375  ASP376  ARG377  VAL378  THR379  GLY380  LYS381 
 LEU382  PHE385  ASN404  GLY508  GLY509  TRP574  ILE651  PRO652  SER653  GLY654 
 GLY655  FAD702  HOH839  HOH865  HOH881  HOH913  HOH945  HOH958  HOH960  HOH966 
 HOH968 

> <Gold.Protein.RotatedAtoms>
   59.7477  -73.0123   -3.7668 H   0  0  0  0  0  0  0  0  0  0  0  0  # atno 6459 bound_to 1704
   62.6120  -67.4630   -5.6782 H   0  0  0  0  0  0  0  0  0  0  0  0  # atno 6656 bound_to 1882
   63.5517  -90.2865   -1.9497 H   0  0  0  0  0  0  0  0  0  0  0  0  # atno 6986 bound_to 2270
   62.5369  -89.5120   -0.8924 H   0  0  0  0  0  0  0  0  0  0  0  0  # atno 6987 bound_to 2270
   61.9093  -90.4106   -2.1357 H   0  0  0  0  0  0  0  0  0  0  0  0  # atno 6988 bound_to 2270
   61.3354  -79.3377   -5.9972 H   0  0  0  0  0  0  0  0  0  0  0  0  # atno 7002 bound_to 2256
   70.2259  -81.3045  -11.8717 H   0  0  0  0  0  0  0  0  0  0  0  0  # atno 9089 bound_to 4362
   52.1636  -69.3431   -7.4896 H   0  0  0  0  0  0  0  0  0  0  0  0  # atno 9191 bound_to 4472
   51.2675  -68.5782   -8.0071 H   0  0  0  0  0  0  0  0  0  0  0  0  # atno 9201 bound_to 4474
   63.9472  -71.9253   -7.8789 H   0  0  0  0  0  0  0  0  0  0  0  0  # atno 9214 bound_to 4510
   65.1546  -72.0915  -11.9807 H   0  0  0  0  0  0  0  0  0  0  0  0  # atno 9219 bound_to 4506
   63.7616  -69.1870  -10.4333 H   0  0  0  0  0  0  0  0  0  0  0  0  # atno 9220 bound_to 4508
   60.0335  -74.4906   -3.1497 LP  0  0  0  0  0  0  0  0  0  0  0  0  # atno 9615 bound_to 1704
   61.2534  -73.4155   -3.2997 LP  0  0  0  0  0  0  0  0  0  0  0  0  # atno 9616 bound_to 1704
   62.4529  -66.9420   -4.1448 LP  0  0  0  0  0  0  0  0  0  0  0  0  # atno 9619 bound_to 1882
   61.3419  -67.9524   -4.7862 LP  0  0  0  0  0  0  0  0  0  0  0  0  # atno 9620 bound_to 1882
   60.4486  -80.6079   -5.4990 LP  0  0  0  0  0  0  0  0  0  0  0  0  # atno 9664 bound_to 2256
   62.0736  -80.7325   -5.6003 LP  0  0  0  0  0  0  0  0  0  0  0  0  # atno 9665 bound_to 2256
   68.7562  -80.8535  -11.3382 LP  0  0  0  0  0  0  0  0  0  0  0  0  # atno 9690 bound_to 4362
   68.9410  -81.4011  -12.8655 LP  0  0  0  0  0  0  0  0  0  0  0  0  # atno 9691 bound_to 4362
   53.6340  -69.8976   -7.0669 LP  0  0  0  0  0  0  0  0  0  0  0  0  # atno 9698 bound_to 4472
   53.1026  -70.0716   -8.6012 LP  0  0  0  0  0  0  0  0  0  0  0  0  # atno 9699 bound_to 4472
   51.2307  -67.6531   -9.3453 LP  0  0  0  0  0  0  0  0  0  0  0  0  # atno 9700 bound_to 4474
   50.6614  -67.0700   -7.9302 LP  0  0  0  0  0  0  0  0  0  0  0  0  # atno 9701 bound_to 4474
   63.5349  -72.2476  -11.9568 LP  0  0  0  0  0  0  0  0  0  0  0  0  # atno 9709 bound_to 4506
   64.4790  -73.3976  -11.2837 LP  0  0  0  0  0  0  0  0  0  0  0  0  # atno 9710 bound_to 4506
   62.2023  -69.3296  -10.8762 LP  0  0  0  0  0  0  0  0  0  0  0  0  # atno 9711 bound_to 4508
   63.3763  -70.0196  -11.7773 LP  0  0  0  0  0  0  0  0  0  0  0  0  # atno 9712 bound_to 4508
   62.4474  -72.4885   -8.1647 LP  0  0  0  0  0  0  0  0  0  0  0  0  # atno 9713 bound_to 4510
   62.7215  -71.4927   -6.8998 LP  0  0  0  0  0  0  0  0  0  0  0  0  # atno 9714 bound_to 4510

$$$$
