C12H12ClN5O4S|Chlorsulfuron|mol|1|dock13
  -GOLD-   2292219383D 1   1.00000     0.00000
 
 35 36  0  0  0  0  0  0  0  0  1 V2000
   57.7412  -78.0813  -16.2691 C   0  0  0  0  0  0  0  0  0  0  0  0
   58.8234  -77.3404  -15.5269 C   0  0  0  0  0  0  0  0  0  0  0  0
   59.9398  -77.9638  -15.1941 N   0  0  0  0  0  0  0  0  0  0  0  0
   60.8967  -77.3122  -14.5390 C   0  0  0  0  0  0  0  0  0  0  0  0
   60.7285  -76.0343  -14.2198 N   0  0  0  0  0  0  0  0  0  0  0  0
   59.6058  -75.4117  -14.5558 C   0  0  0  0  0  0  0  0  0  0  0  0
   58.6559  -76.0667  -15.2150 N   0  0  0  0  0  0  0  0  0  0  0  0
   59.4306  -74.1097  -14.2319 O   0  0  0  0  0  0  0  0  0  0  0  0
   59.1733  -73.4115  -15.4518 C   0  0  0  0  0  0  0  0  0  0  0  0
   62.0670  -77.9662  -14.1897 N   0  0  0  0  0  0  0  0  0  0  0  0
   62.9444  -78.3334  -15.1445 C   0  0  0  0  0  0  0  0  0  0  0  0
   62.7089  -78.0909  -16.3122 O   0  0  0  0  0  0  0  0  0  0  0  0
   64.0830  -78.9697  -14.8048 N   0  0  0  0  0  0  0  0  0  0  0  0
   65.1004  -79.5327  -15.9839 S   0  0  0  0  0  0  0  0  0  0  0  0
   65.5366  -78.3843  -16.6981 O   0  0  0  0  0  0  0  0  0  0  0  0
   65.9498  -80.4747  -15.3434 O   0  0  0  0  0  0  0  0  0  0  0  0
   64.1263  -80.4619  -17.1206 C   0  0  0  0  0  0  0  0  0  0  0  0
   64.2288  -80.2202  -18.4773 C   0  0  0  0  0  0  0  0  0  0  0  0
   63.4644  -80.9492  -19.3694 C   0  0  0  0  0  0  0  0  0  0  0  0
   62.5969  -81.9198  -18.9049 C   0  0  0  0  0  0  0  0  0  0  0  0
   62.4931  -82.1622  -17.5479 C   0  0  0  0  0  0  0  0  0  0  0  0
   63.2625  -81.4376  -16.6553 C   0  0  0  0  0  0  0  0  0  0  0  0
   63.1330  -81.7419  -14.9511 Cl  0  0  0  0  0  0  0  0  0  0  0  0
   57.0579  -78.5389  -15.5538 H   0  0  0  0  0  0  0  0  0  0  0  0
   57.1916  -77.3841  -16.9016 H   0  0  0  0  0  0  0  0  0  0  0  0
   58.1912  -78.8569  -16.8889 H   0  0  0  0  0  0  0  0  0  0  0  0
   59.0246  -72.3527  -15.2401 H   0  0  0  0  0  0  0  0  0  0  0  0
   60.0219  -73.5318  -16.1252 H   0  0  0  0  0  0  0  0  0  0  0  0
   58.2770  -73.8176  -15.9208 H   0  0  0  0  0  0  0  0  0  0  0  0
   62.2549  -78.1598  -13.2579 H   0  0  0  0  0  0  0  0  0  0  0  0
   64.3064  -79.0977  -13.8696 H   0  0  0  0  0  0  0  0  0  0  0  0
   64.9060  -79.4614  -18.8409 H   0  0  0  0  0  0  0  0  0  0  0  0
   63.5449  -80.7600  -20.4297 H   0  0  0  0  0  0  0  0  0  0  0  0
   61.9999  -82.4888  -19.6022 H   0  0  0  0  0  0  0  0  0  0  0  0
   61.8147  -82.9201  -17.1850 H   0  0  0  0  0  0  0  0  0  0  0  0
  1  2  1  0  0  0  0
  2  3  2  0  0  0  0
  3  4  1  0  0  0  0
  4  5  2  0  0  0  0
  5  6  1  0  0  0  0
  6  7  2  0  0  0  0
  2  7  1  0  0  0  0
  6  8  1  0  0  0  0
  8  9  1  0  0  0  0
  4 10  1  0  0  0  0
 10 11  1  0  0  0  0
 11 12  2  0  0  0  0
 11 13  1  0  0  0  0
 13 14  1  0  0  0  0
 14 15  2  0  0  0  0
 14 16  2  0  0  0  0
 14 17  1  0  0  0  0
 17 18  2  0  0  0  0
 18 19  1  0  0  0  0
 19 20  2  0  0  0  0
 20 21  1  0  0  0  0
 21 22  2  0  0  0  0
 17 22  1  0  0  0  0
 22 23  1  0  0  0  0
  1 24  1  0  0  0  0
  1 25  1  0  0  0  0
  1 26  1  0  0  0  0
  9 27  1  0  0  0  0
  9 28  1  0  0  0  0
  9 29  1  0  0  0  0
 10 30  1  0  0  0  0
 13 31  1  0  0  0  0
 18 32  1  0  0  0  0
 19 33  1  0  0  0  0
 20 34  1  0  0  0  0
 21 35  1  0  0  0  0
M  END
> <Gold.Version>
2021.2.0

> <Gold.Id.Protein>
5K6Q|5K6Q_protein|mol2

> <Gold.PLP.Fitness>
27.3161

> <Gold.PLP.PLP>
-15.0907

> <Gold.PLP.part.hbond>
-7.8516

> <Gold.PLP.part.metal>
0.0000

> <Gold.PLP.part.buried>
-2.9693

> <Gold.PLP.part.nonpolar>
-5.1396

> <Gold.PLP.part.repulsive>
0.5385

> <Gold.PLP.ligand.clash>
0.0000

> <Gold.PLP.ligand.torsion>
2.3160

> <Gold.PLP.Chemscore.Hbond>
4.5280

> <Gold.PLP.Chemscore.CHOScore>
0.0000

> <Gold.PLP.Chemscore.Metal>
0.0000

> <Gold.Chemscore.Hbonds>
donor molecule, donor type, donor heavy atom, donor atom, acceptor molecule, acceptor atom, score
      L1  H    10    30       P1  2231  0.80
      L1  H    13    31       P1  2232  1.00
      P1  H  2204  6935       L1     8  0.96
      P1  H  2243  6968       L1    16  0.77
      P1  H  4724  9546       L1    16  1.00

> <Gold.PLP.Chemscore.Internal.Correction>
3.2734

> <Gold.Protein.RotatedTorsions>
[ 6459 1704 1703 1701 ] final  134.13 input   60.01 | X-H torsion
[ 6656 1882 1881 1878 ] final  104.50 input   60.00 | X-H torsion
[ 7002 2256 2255 2252 ] final    8.71 input   60.00 | X-H torsion
[ 6986 2270 2269 2268 ] final  -64.77 input   59.99 | X-H torsion
[ 9089 4362 4361 4358 ] final   -0.49 input   60.01 | X-H torsion
[ 9191 4472 4471 4469 ] final  150.14 input   60.00 | X-H torsion
[ 9201 4474 4473 4471 ] final  -75.17 input   60.00 | X-H torsion
[ 9219 4506 4505 4504 ] final    9.18 input   60.00 | X-H torsion
[ 9220 4508 4507 4505 ] final -113.35 input   60.00 | X-H torsion
[ 9214 4510 4509 4507 ] final  -82.60 input   60.00 | X-H torsion

> <Gold.Protein.ActiveResidues>
 TYR305  THR331  LEU332  MET333  LEU349  GLY350  MET351  HIS352  GLY353  ASN358 
 VAL372  ARG373  PHE374  ASP375  ASP376  ARG377  VAL378  THR379  GLY380  LYS381 
 LEU382  PHE385  ASN404  GLY508  GLY509  TRP574  ILE651  PRO652  SER653  GLY654 
 GLY655  FAD702  HOH839  HOH865  HOH881  HOH913  HOH945  HOH958  HOH960  HOH966 
 HOH968 

> <Gold.Protein.RotatedAtoms>
   60.2638  -74.5153   -3.0894 H   0  0  0  0  0  0  0  0  0  0  0  0  # atno 6459 bound_to 1704
   62.4419  -67.6043   -5.7436 H   0  0  0  0  0  0  0  0  0  0  0  0  # atno 6656 bound_to 1882
   61.9785  -90.4577   -2.2000 H   0  0  0  0  0  0  0  0  0  0  0  0  # atno 6986 bound_to 2270
   63.5863  -90.2280   -1.8685 H   0  0  0  0  0  0  0  0  0  0  0  0  # atno 6987 bound_to 2270
   62.4332  -89.5230   -0.9088 H   0  0  0  0  0  0  0  0  0  0  0  0  # atno 6988 bound_to 2270
   62.2190  -80.2519   -5.7706 H   0  0  0  0  0  0  0  0  0  0  0  0  # atno 7002 bound_to 2256
   69.4497  -80.9162  -11.1394 H   0  0  0  0  0  0  0  0  0  0  0  0  # atno 9089 bound_to 4362
   52.1570  -69.5087   -8.1133 H   0  0  0  0  0  0  0  0  0  0  0  0  # atno 9191 bound_to 4472
   51.2790  -67.7776   -9.3351 H   0  0  0  0  0  0  0  0  0  0  0  0  # atno 9201 bound_to 4474
   62.1910  -72.3092   -7.8443 H   0  0  0  0  0  0  0  0  0  0  0  0  # atno 9214 bound_to 4510
   65.2389  -72.2169  -11.9080 H   0  0  0  0  0  0  0  0  0  0  0  0  # atno 9219 bound_to 4506
   63.0693  -69.0014  -10.2437 H   0  0  0  0  0  0  0  0  0  0  0  0  # atno 9220 bound_to 4508
   61.1817  -73.2065   -3.3939 LP  0  0  0  0  0  0  0  0  0  0  0  0  # atno 9615 bound_to 1704
   59.5855  -73.1859   -3.7378 LP  0  0  0  0  0  0  0  0  0  0  0  0  # atno 9616 bound_to 1704
   62.6228  -66.8881   -4.2936 LP  0  0  0  0  0  0  0  0  0  0  0  0  # atno 9619 bound_to 1882
   61.3433  -67.8639   -4.5714 LP  0  0  0  0  0  0  0  0  0  0  0  0  # atno 9620 bound_to 1882
   60.8196  -79.4353   -5.9219 LP  0  0  0  0  0  0  0  0  0  0  0  0  # atno 9664 bound_to 2256
   60.8126  -80.9845   -5.4056 LP  0  0  0  0  0  0  0  0  0  0  0  0  # atno 9665 bound_to 2256
   68.4443  -81.1526  -12.3970 LP  0  0  0  0  0  0  0  0  0  0  0  0  # atno 9690 bound_to 4362
   70.0346  -81.4931  -12.5441 LP  0  0  0  0  0  0  0  0  0  0  0  0  # atno 9691 bound_to 4362
   53.1217  -69.5948   -6.8056 LP  0  0  0  0  0  0  0  0  0  0  0  0  # atno 9698 bound_to 4472
   53.6216  -70.2076   -8.2343 LP  0  0  0  0  0  0  0  0  0  0  0  0  # atno 9699 bound_to 4472
   50.6623  -67.0007   -8.0451 LP  0  0  0  0  0  0  0  0  0  0  0  0  # atno 9700 bound_to 4474
   51.2181  -68.5287   -7.8929 LP  0  0  0  0  0  0  0  0  0  0  0  0  # atno 9701 bound_to 4474
   63.6188  -72.1182  -12.0255 LP  0  0  0  0  0  0  0  0  0  0  0  0  # atno 9709 bound_to 4506
   64.3102  -73.4008  -11.2882 LP  0  0  0  0  0  0  0  0  0  0  0  0  # atno 9710 bound_to 4506
   62.3247  -69.7377  -11.4893 LP  0  0  0  0  0  0  0  0  0  0  0  0  # atno 9711 bound_to 4508
   63.9511  -69.7983  -11.3552 LP  0  0  0  0  0  0  0  0  0  0  0  0  # atno 9712 bound_to 4508
   63.1604  -71.3968   -6.9084 LP  0  0  0  0  0  0  0  0  0  0  0  0  # atno 9713 bound_to 4510
   63.7771  -72.1978   -8.1909 LP  0  0  0  0  0  0  0  0  0  0  0  0  # atno 9714 bound_to 4510

$$$$
