C12H12ClN5O4S|Chlorsulfuron|mol|1|dock3
  -GOLD-   2292219373D 1   1.00000     0.00000
 
 35 36  0  0  0  0  0  0  0  0  1 V2000
   59.6740  -74.1045  -15.0994 C   0  0  0  0  0  0  0  0  0  0  0  0
   60.8454  -74.9306  -15.5648 C   0  0  0  0  0  0  0  0  0  0  0  0
   61.2214  -75.9906  -14.8713 N   0  0  0  0  0  0  0  0  0  0  0  0
   62.2549  -76.7215  -15.2797 C   0  0  0  0  0  0  0  0  0  0  0  0
   62.9084  -76.3846  -16.3855 N   0  0  0  0  0  0  0  0  0  0  0  0
   62.5277  -75.3193  -17.0792 C   0  0  0  0  0  0  0  0  0  0  0  0
   61.4911  -74.5963  -16.6688 N   0  0  0  0  0  0  0  0  0  0  0  0
   63.1915  -74.9726  -18.2061 O   0  0  0  0  0  0  0  0  0  0  0  0
   64.5084  -74.5865  -17.8076 C   0  0  0  0  0  0  0  0  0  0  0  0
   62.6493  -77.8326  -14.5523 N   0  0  0  0  0  0  0  0  0  0  0  0
   63.2257  -78.8779  -15.1779 C   0  0  0  0  0  0  0  0  0  0  0  0
   63.3996  -78.8458  -16.3807 O   0  0  0  0  0  0  0  0  0  0  0  0
   63.6093  -79.9589  -14.4702 N   0  0  0  0  0  0  0  0  0  0  0  0
   64.2013  -81.2932  -15.2523 S   0  0  0  0  0  0  0  0  0  0  0  0
   65.4561  -80.9001  -15.7908 O   0  0  0  0  0  0  0  0  0  0  0  0
   63.9918  -82.3845  -14.3665 O   0  0  0  0  0  0  0  0  0  0  0  0
   63.1586  -81.5963  -16.6399 C   0  0  0  0  0  0  0  0  0  0  0  0
   63.7105  -81.7622  -17.8959 C   0  0  0  0  0  0  0  0  0  0  0  0
   62.8925  -81.9999  -18.9849 C   0  0  0  0  0  0  0  0  0  0  0  0
   61.5222  -82.0713  -18.8181 C   0  0  0  0  0  0  0  0  0  0  0  0
   60.9689  -81.9050  -17.5623 C   0  0  0  0  0  0  0  0  0  0  0  0
   61.7873  -81.6736  -16.4713 C   0  0  0  0  0  0  0  0  0  0  0  0
   61.0932  -81.4653  -14.8938 Cl  0  0  0  0  0  0  0  0  0  0  0  0
   60.0265  -73.3174  -14.4328 H   0  0  0  0  0  0  0  0  0  0  0  0
   59.1802  -73.6563  -15.9616 H   0  0  0  0  0  0  0  0  0  0  0  0
   58.9683  -74.7423  -14.5672 H   0  0  0  0  0  0  0  0  0  0  0  0
   65.0839  -74.2971  -18.6869 H   0  0  0  0  0  0  0  0  0  0  0  0
   64.4472  -73.7433  -17.1196 H   0  0  0  0  0  0  0  0  0  0  0  0
   64.9985  -75.4246  -17.3122 H   0  0  0  0  0  0  0  0  0  0  0  0
   62.5105  -77.8582  -13.5925 H   0  0  0  0  0  0  0  0  0  0  0  0
   63.5388  -79.9552  -13.5028 H   0  0  0  0  0  0  0  0  0  0  0  0
   64.7810  -81.7058  -18.0270 H   0  0  0  0  0  0  0  0  0  0  0  0
   63.3242  -82.1295  -19.9663 H   0  0  0  0  0  0  0  0  0  0  0  0
   60.8837  -82.2567  -19.6692 H   0  0  0  0  0  0  0  0  0  0  0  0
   59.8982  -81.9600  -17.4322 H   0  0  0  0  0  0  0  0  0  0  0  0
  1  2  1  0  0  0  0
  2  3  2  0  0  0  0
  3  4  1  0  0  0  0
  4  5  2  0  0  0  0
  5  6  1  0  0  0  0
  6  7  2  0  0  0  0
  2  7  1  0  0  0  0
  6  8  1  0  0  0  0
  8  9  1  0  0  0  0
  4 10  1  0  0  0  0
 10 11  1  0  0  0  0
 11 12  2  0  0  0  0
 11 13  1  0  0  0  0
 13 14  1  0  0  0  0
 14 15  2  0  0  0  0
 14 16  2  0  0  0  0
 14 17  1  0  0  0  0
 17 18  2  0  0  0  0
 18 19  1  0  0  0  0
 19 20  2  0  0  0  0
 20 21  1  0  0  0  0
 21 22  2  0  0  0  0
 17 22  1  0  0  0  0
 22 23  1  0  0  0  0
  1 24  1  0  0  0  0
  1 25  1  0  0  0  0
  1 26  1  0  0  0  0
  9 27  1  0  0  0  0
  9 28  1  0  0  0  0
  9 29  1  0  0  0  0
 10 30  1  0  0  0  0
 13 31  1  0  0  0  0
 18 32  1  0  0  0  0
 19 33  1  0  0  0  0
 20 34  1  0  0  0  0
 21 35  1  0  0  0  0
M  END
> <Gold.Version>
2021.2.0

> <Gold.Id.Protein>
5K6Q|5K6Q_protein|mol2

> <Gold.PLP.Fitness>
20.6861

> <Gold.PLP.PLP>
-12.6764

> <Gold.PLP.part.hbond>
-3.9751

> <Gold.PLP.part.metal>
0.0000

> <Gold.PLP.part.buried>
-3.8403

> <Gold.PLP.part.nonpolar>
-7.4282

> <Gold.PLP.part.repulsive>
1.4772

> <Gold.PLP.ligand.clash>
0.0000

> <Gold.PLP.ligand.torsion>
1.8750

> <Gold.PLP.Chemscore.Hbond>
2.8288

> <Gold.PLP.Chemscore.CHOScore>
0.0000

> <Gold.PLP.Chemscore.Metal>
0.0000

> <Gold.Chemscore.Hbonds>
donor molecule, donor type, donor heavy atom, donor atom, acceptor molecule, acceptor atom, score
      L1  H    10    30       P1  2231  0.83
      L1  H    13    31       P1  2232  1.00
      P1  H  4724  9546       L1    15  1.00

> <Gold.PLP.Chemscore.Internal.Correction>
3.2734

> <Gold.Protein.RotatedTorsions>
[ 6459 1704 1703 1701 ] final -140.69 input   60.01 | X-H torsion
[ 6656 1882 1881 1878 ] final  -27.67 input   60.00 | X-H torsion
[ 7002 2256 2255 2252 ] final   53.34 input   60.00 | X-H torsion
[ 6986 2270 2269 2268 ] final  -69.06 input   59.99 | X-H torsion
[ 9089 4362 4361 4358 ] final  138.59 input   60.01 | X-H torsion
[ 9191 4472 4471 4469 ] final  -16.37 input   60.00 | X-H torsion
[ 9201 4474 4473 4471 ] final  159.18 input   60.00 | X-H torsion
[ 9219 4506 4505 4504 ] final   31.02 input   60.00 | X-H torsion
[ 9220 4508 4507 4505 ] final  125.79 input   60.00 | X-H torsion
[ 9214 4510 4509 4507 ] final   52.37 input   60.00 | X-H torsion

> <Gold.Protein.ActiveResidues>
 TYR305  THR331  LEU332  MET333  LEU349  GLY350  MET351  HIS352  GLY353  ASN358 
 VAL372  ARG373  PHE374  ASP375  ASP376  ARG377  VAL378  THR379  GLY380  LYS381 
 LEU382  PHE385  ASN404  GLY508  GLY509  TRP574  ILE651  PRO652  SER653  GLY654 
 GLY655  FAD702  HOH839  HOH865  HOH881  HOH913  HOH945  HOH958  HOH960  HOH966 
 HOH968 

> <Gold.Protein.RotatedAtoms>
   59.4246  -73.6995   -3.5748 H   0  0  0  0  0  0  0  0  0  0  0  0  # atno 6459 bound_to 1704
   62.4770  -66.9380   -4.1672 H   0  0  0  0  0  0  0  0  0  0  0  0  # atno 6656 bound_to 1882
   61.9307  -90.4262   -2.1570 H   0  0  0  0  0  0  0  0  0  0  0  0  # atno 6986 bound_to 2270
   63.5641  -90.2679   -1.9237 H   0  0  0  0  0  0  0  0  0  0  0  0  # atno 6987 bound_to 2270
   62.5033  -89.5146   -0.8966 H   0  0  0  0  0  0  0  0  0  0  0  0  # atno 6988 bound_to 2270
   61.9472  -80.8677   -5.5418 H   0  0  0  0  0  0  0  0  0  0  0  0  # atno 7002 bound_to 2256
   69.8009  -81.5215  -12.7481 H   0  0  0  0  0  0  0  0  0  0  0  0  # atno 9089 bound_to 4362
   53.6847  -69.9389   -7.1446 H   0  0  0  0  0  0  0  0  0  0  0  0  # atno 9191 bound_to 4472
   50.6657  -67.0514   -7.9673 H   0  0  0  0  0  0  0  0  0  0  0  0  # atno 9201 bound_to 4474
   63.8911  -72.0509   -8.0315 H   0  0  0  0  0  0  0  0  0  0  0  0  # atno 9214 bound_to 4510
   65.3255  -72.5162  -11.7387 H   0  0  0  0  0  0  0  0  0  0  0  0  # atno 9219 bound_to 4506
   62.3378  -69.7451  -11.4943 H   0  0  0  0  0  0  0  0  0  0  0  0  # atno 9220 bound_to 4508
   60.8044  -74.3708   -3.0327 LP  0  0  0  0  0  0  0  0  0  0  0  0  # atno 9615 bound_to 1704
   60.8079  -72.8432   -3.6101 LP  0  0  0  0  0  0  0  0  0  0  0  0  # atno 9616 bound_to 1704
   61.3392  -67.9417   -4.7555 LP  0  0  0  0  0  0  0  0  0  0  0  0  # atno 9619 bound_to 1882
   62.5915  -67.4813   -5.6969 LP  0  0  0  0  0  0  0  0  0  0  0  0  # atno 9620 bound_to 1882
   61.5272  -79.3660   -6.0071 LP  0  0  0  0  0  0  0  0  0  0  0  0  # atno 9664 bound_to 2256
   60.3789  -80.4336   -5.5508 LP  0  0  0  0  0  0  0  0  0  0  0  0  # atno 9665 bound_to 2256
   69.7434  -80.9913  -11.2107 LP  0  0  0  0  0  0  0  0  0  0  0  0  # atno 9690 bound_to 4362
   68.3817  -81.0447  -12.1104 LP  0  0  0  0  0  0  0  0  0  0  0  0  # atno 9691 bound_to 4362
   53.0099  -70.0353   -8.6222 LP  0  0  0  0  0  0  0  0  0  0  0  0  # atno 9698 bound_to 4472
   52.1948  -69.3337   -7.3933 LP  0  0  0  0  0  0  0  0  0  0  0  0  # atno 9699 bound_to 4472
   51.2523  -68.5692   -7.9693 LP  0  0  0  0  0  0  0  0  0  0  0  0  # atno 9700 bound_to 4474
   51.2458  -67.6915   -9.3463 LP  0  0  0  0  0  0  0  0  0  0  0  0  # atno 9701 bound_to 4474
   63.8749  -71.8966  -12.1389 LP  0  0  0  0  0  0  0  0  0  0  0  0  # atno 9709 bound_to 4506
   63.9668  -73.3208  -11.3453 LP  0  0  0  0  0  0  0  0  0  0  0  0  # atno 9710 bound_to 4506
   63.9574  -69.7918  -11.3443 LP  0  0  0  0  0  0  0  0  0  0  0  0  # atno 9711 bound_to 4508
   63.0550  -68.9953  -10.2407 LP  0  0  0  0  0  0  0  0  0  0  0  0  # atno 9712 bound_to 4508
   62.3065  -72.4213   -8.0289 LP  0  0  0  0  0  0  0  0  0  0  0  0  # atno 9713 bound_to 4510
   62.9189  -71.4335   -6.8819 LP  0  0  0  0  0  0  0  0  0  0  0  0  # atno 9714 bound_to 4510

$$$$
