C12H12ClN5O4S|Chlorsulfuron|mol|1|dock43
  -GOLD-   2292219383D 1   1.00000     0.00000
 
 35 36  0  0  0  0  0  0  0  0  1 V2000
   67.5443  -73.9759  -13.8992 C   0  0  0  0  0  0  0  0  0  0  0  0
   66.5836  -74.9261  -14.5664 C   0  0  0  0  0  0  0  0  0  0  0  0
   65.4802  -75.2955  -13.9405 N   0  0  0  0  0  0  0  0  0  0  0  0
   64.6305  -76.1341  -14.5270 C   0  0  0  0  0  0  0  0  0  0  0  0
   64.8926  -76.5996  -15.7427 N   0  0  0  0  0  0  0  0  0  0  0  0
   66.0018  -76.2262  -16.3681 C   0  0  0  0  0  0  0  0  0  0  0  0
   66.8440  -75.3839  -15.7789 N   0  0  0  0  0  0  0  0  0  0  0  0
   66.2726  -76.6989  -17.6067 O   0  0  0  0  0  0  0  0  0  0  0  0
   66.3725  -75.5639  -18.4692 C   0  0  0  0  0  0  0  0  0  0  0  0
   63.4739  -76.5217  -13.8703 N   0  0  0  0  0  0  0  0  0  0  0  0
   62.2702  -76.1513  -14.3503 C   0  0  0  0  0  0  0  0  0  0  0  0
   62.1994  -75.4771  -15.3593 O   0  0  0  0  0  0  0  0  0  0  0  0
   61.1449  -76.5282  -13.7113 N   0  0  0  0  0  0  0  0  0  0  0  0
   59.6735  -75.9700  -14.2268 S   0  0  0  0  0  0  0  0  0  0  0  0
   58.7032  -76.7574  -13.5503 O   0  0  0  0  0  0  0  0  0  0  0  0
   59.7604  -74.5524  -14.1800 O   0  0  0  0  0  0  0  0  0  0  0  0
   59.5211  -76.3841  -15.9327 C   0  0  0  0  0  0  0  0  0  0  0  0
   60.1331  -77.5210  -16.4252 C   0  0  0  0  0  0  0  0  0  0  0  0
   60.0138  -77.8460  -17.7637 C   0  0  0  0  0  0  0  0  0  0  0  0
   59.2827  -77.0339  -18.6101 C   0  0  0  0  0  0  0  0  0  0  0  0
   58.6704  -75.8961  -18.1188 C   0  0  0  0  0  0  0  0  0  0  0  0
   58.7841  -75.5739  -16.7782 C   0  0  0  0  0  0  0  0  0  0  0  0
   58.0149  -74.1455  -16.1603 Cl  0  0  0  0  0  0  0  0  0  0  0  0
   68.2769  -74.5433  -13.3252 H   0  0  0  0  0  0  0  0  0  0  0  0
   68.0564  -73.3844  -14.6582 H   0  0  0  0  0  0  0  0  0  0  0  0
   66.9944  -73.3126  -13.2315 H   0  0  0  0  0  0  0  0  0  0  0  0
   66.5911  -75.8968  -19.4839 H   0  0  0  0  0  0  0  0  0  0  0  0
   65.4295  -75.0174  -18.4612 H   0  0  0  0  0  0  0  0  0  0  0  0
   67.1733  -74.9118  -18.1203 H   0  0  0  0  0  0  0  0  0  0  0  0
   63.5304  -77.0596  -13.0651 H   0  0  0  0  0  0  0  0  0  0  0  0
   61.1969  -77.1266  -12.9497 H   0  0  0  0  0  0  0  0  0  0  0  0
   60.7051  -78.1556  -15.7645 H   0  0  0  0  0  0  0  0  0  0  0  0
   60.4923  -78.7346  -18.1482 H   0  0  0  0  0  0  0  0  0  0  0  0
   59.1901  -77.2881  -19.6557 H   0  0  0  0  0  0  0  0  0  0  0  0
   58.0999  -75.2612  -18.7803 H   0  0  0  0  0  0  0  0  0  0  0  0
  1  2  1  0  0  0  0
  2  3  2  0  0  0  0
  3  4  1  0  0  0  0
  4  5  2  0  0  0  0
  5  6  1  0  0  0  0
  6  7  2  0  0  0  0
  2  7  1  0  0  0  0
  6  8  1  0  0  0  0
  8  9  1  0  0  0  0
  4 10  1  0  0  0  0
 10 11  1  0  0  0  0
 11 12  2  0  0  0  0
 11 13  1  0  0  0  0
 13 14  1  0  0  0  0
 14 15  2  0  0  0  0
 14 16  2  0  0  0  0
 14 17  1  0  0  0  0
 17 18  2  0  0  0  0
 18 19  1  0  0  0  0
 19 20  2  0  0  0  0
 20 21  1  0  0  0  0
 21 22  2  0  0  0  0
 17 22  1  0  0  0  0
 22 23  1  0  0  0  0
  1 24  1  0  0  0  0
  1 25  1  0  0  0  0
  1 26  1  0  0  0  0
  9 27  1  0  0  0  0
  9 28  1  0  0  0  0
  9 29  1  0  0  0  0
 10 30  1  0  0  0  0
 13 31  1  0  0  0  0
 18 32  1  0  0  0  0
 19 33  1  0  0  0  0
 20 34  1  0  0  0  0
 21 35  1  0  0  0  0
M  END
> <Gold.Version>
2021.2.0

> <Gold.Id.Protein>
5K6Q|5K6Q_protein|mol2

> <Gold.PLP.Fitness>
28.6917

> <Gold.PLP.PLP>
-19.4412

> <Gold.PLP.part.hbond>
-5.0000

> <Gold.PLP.part.metal>
0.0000

> <Gold.PLP.part.buried>
-5.2046

> <Gold.PLP.part.nonpolar>
-11.4818

> <Gold.PLP.part.repulsive>
0.5595

> <Gold.PLP.ligand.clash>
0.0000

> <Gold.PLP.ligand.torsion>
2.3609

> <Gold.PLP.Chemscore.Hbond>
3.5676

> <Gold.PLP.Chemscore.CHOScore>
0.0000

> <Gold.PLP.Chemscore.Metal>
0.0000

> <Gold.Chemscore.Hbonds>
donor molecule, donor type, donor heavy atom, donor atom, acceptor molecule, acceptor atom, score
      L1  H    10    30       P1  2231  0.89
      L1  H    13    31       P1  2231  0.83
      P1  H  2204  6935       L1    16  1.00
      P1  H  4718  9584       L1     8  0.85

> <Gold.PLP.Chemscore.Internal.Correction>
3.2693

> <Gold.Protein.RotatedTorsions>
[ 6459 1704 1703 1701 ] final -104.62 input   60.01 | X-H torsion
[ 6656 1882 1881 1878 ] final  111.02 input   60.00 | X-H torsion
[ 7002 2256 2255 2252 ] final  148.90 input   60.00 | X-H torsion
[ 6986 2270 2269 2268 ] final -134.52 input   59.99 | X-H torsion
[ 9089 4362 4361 4358 ] final  112.00 input   60.01 | X-H torsion
[ 9191 4472 4471 4469 ] final  -27.61 input   60.00 | X-H torsion
[ 9201 4474 4473 4471 ] final   56.37 input   60.00 | X-H torsion
[ 9219 4506 4505 4504 ] final  -59.49 input   60.00 | X-H torsion
[ 9220 4508 4507 4505 ] final   41.27 input   60.00 | X-H torsion
[ 9214 4510 4509 4507 ] final  170.77 input   60.00 | X-H torsion

> <Gold.Protein.ActiveResidues>
 TYR305  THR331  LEU332  MET333  LEU349  GLY350  MET351  HIS352  GLY353  ASN358 
 VAL372  ARG373  PHE374  ASP375  ASP376  ARG377  VAL378  THR379  GLY380  LYS381 
 LEU382  PHE385  ASN404  GLY508  GLY509  TRP574  ILE651  PRO652  SER653  GLY654 
 GLY655  FAD702  HOH839  HOH865  HOH881  HOH913  HOH945  HOH958  HOH960  HOH966 
 HOH968 

> <Gold.Protein.RotatedAtoms>
   59.6020  -73.1720   -3.7371 H   0  0  0  0  0  0  0  0  0  0  0  0  # atno 6459 bound_to 1704
   62.3567  -67.6668   -5.7561 H   0  0  0  0  0  0  0  0  0  0  0  0  # atno 6656 bound_to 1882
   61.8036  -89.8221   -1.3265 H   0  0  0  0  0  0  0  0  0  0  0  0  # atno 6986 bound_to 2270
   62.7384  -90.6307   -2.4309 H   0  0  0  0  0  0  0  0  0  0  0  0  # atno 6987 bound_to 2270
   63.4564  -89.7559   -1.2200 H   0  0  0  0  0  0  0  0  0  0  0  0  # atno 6988 bound_to 2270
   60.5669  -80.7703   -5.4529 H   0  0  0  0  0  0  0  0  0  0  0  0  # atno 7002 bound_to 2256
   70.0984  -81.4726  -12.4407 H   0  0  0  0  0  0  0  0  0  0  0  0  # atno 9089 bound_to 4362
   53.7620  -70.0141   -7.2930 H   0  0  0  0  0  0  0  0  0  0  0  0  # atno 9191 bound_to 4472
   51.1451  -68.4181   -7.7582 H   0  0  0  0  0  0  0  0  0  0  0  0  # atno 9201 bound_to 4474
   62.9449  -71.4296   -6.8889 H   0  0  0  0  0  0  0  0  0  0  0  0  # atno 9214 bound_to 4510
   64.3302  -71.7610  -12.1946 H   0  0  0  0  0  0  0  0  0  0  0  0  # atno 9219 bound_to 4506
   63.5556  -69.9893  -11.7011 H   0  0  0  0  0  0  0  0  0  0  0  0  # atno 9220 bound_to 4508
   60.2437  -74.5218   -3.0936 LP  0  0  0  0  0  0  0  0  0  0  0  0  # atno 9615 bound_to 1704
   61.1900  -73.2235   -3.3857 LP  0  0  0  0  0  0  0  0  0  0  0  0  # atno 9616 bound_to 1704
   62.6917  -66.8747   -4.3746 LP  0  0  0  0  0  0  0  0  0  0  0  0  # atno 9619 bound_to 1882
   61.3602  -67.8144   -4.4780 LP  0  0  0  0  0  0  0  0  0  0  0  0  # atno 9620 bound_to 1882
   62.1663  -80.5597   -5.6660 LP  0  0  0  0  0  0  0  0  0  0  0  0  # atno 9664 bound_to 2256
   61.1298  -79.3380   -5.9815 LP  0  0  0  0  0  0  0  0  0  0  0  0  # atno 9665 bound_to 2256
   69.3299  -80.8887  -11.1305 LP  0  0  0  0  0  0  0  0  0  0  0  0  # atno 9690 bound_to 4362
   68.4957  -81.1967  -12.5002 LP  0  0  0  0  0  0  0  0  0  0  0  0  # atno 9691 bound_to 4362
   52.8408  -69.9617   -8.6334 LP  0  0  0  0  0  0  0  0  0  0  0  0  # atno 9698 bound_to 4472
   52.2860  -69.3316   -7.2327 LP  0  0  0  0  0  0  0  0  0  0  0  0  # atno 9699 bound_to 4472
   51.3381  -67.9546   -9.3060 LP  0  0  0  0  0  0  0  0  0  0  0  0  # atno 9700 bound_to 4474
   50.6772  -66.9296   -8.2201 LP  0  0  0  0  0  0  0  0  0  0  0  0  # atno 9701 bound_to 4474
   63.6077  -73.0483  -11.5098 LP  0  0  0  0  0  0  0  0  0  0  0  0  # atno 9709 bound_to 4506
   65.2363  -72.9297  -11.5153 LP  0  0  0  0  0  0  0  0  0  0  0  0  # atno 9710 bound_to 4506
   63.6106  -69.1068  -10.3351 LP  0  0  0  0  0  0  0  0  0  0  0  0  # atno 9711 bound_to 4508
   62.1754  -69.4344  -11.0417 LP  0  0  0  0  0  0  0  0  0  0  0  0  # atno 9712 bound_to 4508
   63.8873  -72.0692   -8.0512 LP  0  0  0  0  0  0  0  0  0  0  0  0  # atno 9713 bound_to 4510
   62.2911  -72.4112   -8.0102 LP  0  0  0  0  0  0  0  0  0  0  0  0  # atno 9714 bound_to 4510

$$$$
