C12H12ClN5O4S|Chlorsulfuron|mol|1|dock20
  -GOLD-   2292219383D 1   1.00000     0.00000
 
 35 36  0  0  0  0  0  0  0  0  1 V2000
   67.1972  -73.7037  -13.9021 C   0  0  0  0  0  0  0  0  0  0  0  0
   66.3219  -74.7436  -14.5531 C   0  0  0  0  0  0  0  0  0  0  0  0
   65.2040  -75.1276  -13.9626 N   0  0  0  0  0  0  0  0  0  0  0  0
   64.4296  -76.0451  -14.5349 C   0  0  0  0  0  0  0  0  0  0  0  0
   64.7814  -76.5748  -15.7006 N   0  0  0  0  0  0  0  0  0  0  0  0
   65.9048  -76.1865  -16.2905 C   0  0  0  0  0  0  0  0  0  0  0  0
   66.6714  -75.2654  -15.7162 N   0  0  0  0  0  0  0  0  0  0  0  0
   66.2668  -76.7243  -17.4782 O   0  0  0  0  0  0  0  0  0  0  0  0
   65.2452  -76.3800  -18.4161 C   0  0  0  0  0  0  0  0  0  0  0  0
   63.2578  -76.4480  -13.9153 N   0  0  0  0  0  0  0  0  0  0  0  0
   62.0688  -76.0036  -14.3684 C   0  0  0  0  0  0  0  0  0  0  0  0
   62.0246  -75.2492  -15.3206 O   0  0  0  0  0  0  0  0  0  0  0  0
   60.9287  -76.3954  -13.7656 N   0  0  0  0  0  0  0  0  0  0  0  0
   59.4781  -75.7527  -14.2400 S   0  0  0  0  0  0  0  0  0  0  0  0
   58.4834  -76.4826  -13.5351 O   0  0  0  0  0  0  0  0  0  0  0  0
   59.6483  -74.3426  -14.1978 O   0  0  0  0  0  0  0  0  0  0  0  0
   59.2537  -76.1570  -15.9403 C   0  0  0  0  0  0  0  0  0  0  0  0
   60.0470  -77.1216  -16.5318 C   0  0  0  0  0  0  0  0  0  0  0  0
   59.8711  -77.4389  -17.8659 C   0  0  0  0  0  0  0  0  0  0  0  0
   58.9021  -76.7913  -18.6090 C   0  0  0  0  0  0  0  0  0  0  0  0
   58.1082  -75.8259  -18.0185 C   0  0  0  0  0  0  0  0  0  0  0  0
   58.2794  -75.5126  -16.6820 C   0  0  0  0  0  0  0  0  0  0  0  0
   57.2824  -74.3007  -15.9396 Cl  0  0  0  0  0  0  0  0  0  0  0  0
   67.9227  -74.1941  -13.2531 H   0  0  0  0  0  0  0  0  0  0  0  0
   67.7222  -73.1375  -14.6714 H   0  0  0  0  0  0  0  0  0  0  0  0
   66.5797  -73.0275  -13.3109 H   0  0  0  0  0  0  0  0  0  0  0  0
   65.4945  -76.7939  -19.3932 H   0  0  0  0  0  0  0  0  0  0  0  0
   64.2917  -76.7883  -18.0810 H   0  0  0  0  0  0  0  0  0  0  0  0
   65.1700  -75.2950  -18.4895 H   0  0  0  0  0  0  0  0  0  0  0  0
   63.2930  -77.0499  -13.1555 H   0  0  0  0  0  0  0  0  0  0  0  0
   60.9580  -77.0539  -13.0541 H   0  0  0  0  0  0  0  0  0  0  0  0
   60.8048  -77.6275  -15.9519 H   0  0  0  0  0  0  0  0  0  0  0  0
   60.4913  -78.1928  -18.3279 H   0  0  0  0  0  0  0  0  0  0  0  0
   58.7654  -77.0394  -19.6512 H   0  0  0  0  0  0  0  0  0  0  0  0
   57.3517  -75.3194  -18.5994 H   0  0  0  0  0  0  0  0  0  0  0  0
  1  2  1  0  0  0  0
  2  3  2  0  0  0  0
  3  4  1  0  0  0  0
  4  5  2  0  0  0  0
  5  6  1  0  0  0  0
  6  7  2  0  0  0  0
  2  7  1  0  0  0  0
  6  8  1  0  0  0  0
  8  9  1  0  0  0  0
  4 10  1  0  0  0  0
 10 11  1  0  0  0  0
 11 12  2  0  0  0  0
 11 13  1  0  0  0  0
 13 14  1  0  0  0  0
 14 15  2  0  0  0  0
 14 16  2  0  0  0  0
 14 17  1  0  0  0  0
 17 18  2  0  0  0  0
 18 19  1  0  0  0  0
 19 20  2  0  0  0  0
 20 21  1  0  0  0  0
 21 22  2  0  0  0  0
 17 22  1  0  0  0  0
 22 23  1  0  0  0  0
  1 24  1  0  0  0  0
  1 25  1  0  0  0  0
  1 26  1  0  0  0  0
  9 27  1  0  0  0  0
  9 28  1  0  0  0  0
  9 29  1  0  0  0  0
 10 30  1  0  0  0  0
 13 31  1  0  0  0  0
 18 32  1  0  0  0  0
 19 33  1  0  0  0  0
 20 34  1  0  0  0  0
 21 35  1  0  0  0  0
M  END
> <Gold.Version>
2021.2.0

> <Gold.Id.Protein>
5K6Q|5K6Q_protein|mol2

> <Gold.PLP.Fitness>
28.5738

> <Gold.PLP.PLP>
-21.2109

> <Gold.PLP.part.hbond>
-4.7348

> <Gold.PLP.part.metal>
0.0000

> <Gold.PLP.part.buried>
-5.4339

> <Gold.PLP.part.nonpolar>
-12.1683

> <Gold.PLP.part.repulsive>
0.4975

> <Gold.PLP.ligand.clash>
0.0000

> <Gold.PLP.ligand.torsion>
2.4943

> <Gold.PLP.Chemscore.Hbond>
3.0261

> <Gold.PLP.Chemscore.CHOScore>
0.0000

> <Gold.PLP.Chemscore.Metal>
0.0000

> <Gold.Chemscore.Hbonds>
donor molecule, donor type, donor heavy atom, donor atom, acceptor molecule, acceptor atom, score
      L1  H    10    30       P1  2231  1.00
      L1  H    13    31       P1  2231  0.24
      P1  H  2204  6935       L1    16  1.00
      P1  H  4718  9584       L1     8  0.78

> <Gold.PLP.Chemscore.Internal.Correction>
3.2734

> <Gold.Protein.RotatedTorsions>
[ 6459 1704 1703 1701 ] final  -46.69 input   60.01 | X-H torsion
[ 6656 1882 1881 1878 ] final   44.64 input   60.00 | X-H torsion
[ 7002 2256 2255 2252 ] final -132.37 input   60.00 | X-H torsion
[ 6986 2270 2269 2268 ] final -132.69 input   59.99 | X-H torsion
[ 9089 4362 4361 4358 ] final -138.98 input   60.01 | X-H torsion
[ 9191 4472 4471 4469 ] final  -14.44 input   60.00 | X-H torsion
[ 9201 4474 4473 4471 ] final  134.81 input   60.00 | X-H torsion
[ 9219 4506 4505 4504 ] final -179.04 input   60.00 | X-H torsion
[ 9220 4508 4507 4505 ] final   65.16 input   60.00 | X-H torsion
[ 9214 4510 4509 4507 ] final   -6.90 input   60.00 | X-H torsion

> <Gold.Protein.ActiveResidues>
 TYR305  THR331  LEU332  MET333  LEU349  GLY350  MET351  HIS352  GLY353  ASN358 
 VAL372  ARG373  PHE374  ASP375  ASP376  ARG377  VAL378  THR379  GLY380  LYS381 
 LEU382  PHE385  ASN404  GLY508  GLY509  TRP574  ILE651  PRO652  SER653  GLY654 
 GLY655  FAD702  HOH839  HOH865  HOH881  HOH913  HOH945  HOH958  HOH960  HOH966 
 HOH968 

> <Gold.Protein.RotatedAtoms>
   60.4093  -72.7595   -3.7232 H   0  0  0  0  0  0  0  0  0  0  0  0  # atno 6459 bound_to 1704
   62.9248  -67.0455   -5.1714 H   0  0  0  0  0  0  0  0  0  0  0  0  # atno 6656 bound_to 1882
   61.7908  -89.8384   -1.3490 H   0  0  0  0  0  0  0  0  0  0  0  0  # atno 6986 bound_to 2270
   62.7688  -90.6292   -2.4286 H   0  0  0  0  0  0  0  0  0  0  0  0  # atno 6987 bound_to 2270
   63.4388  -89.7411   -1.1998 H   0  0  0  0  0  0  0  0  0  0  0  0  # atno 6988 bound_to 2270
   60.5628  -79.6433   -5.8276 H   0  0  0  0  0  0  0  0  0  0  0  0  # atno 7002 bound_to 2256
   68.6004  -81.2624  -12.6310 H   0  0  0  0  0  0  0  0  0  0  0  0  # atno 9089 bound_to 4362
   53.6686  -69.9254   -7.1212 H   0  0  0  0  0  0  0  0  0  0  0  0  # atno 9191 bound_to 4472
   50.7019  -67.3229   -7.6825 H   0  0  0  0  0  0  0  0  0  0  0  0  # atno 9201 bound_to 4474
   63.1734  -72.4969   -8.4099 H   0  0  0  0  0  0  0  0  0  0  0  0  # atno 9214 bound_to 4510
   63.6090  -73.0386  -11.5125 H   0  0  0  0  0  0  0  0  0  0  0  0  # atno 9219 bound_to 4506
   63.1846  -70.0246  -11.8074 H   0  0  0  0  0  0  0  0  0  0  0  0  # atno 9220 bound_to 4508
   59.5113  -74.0811   -3.4147 LP  0  0  0  0  0  0  0  0  0  0  0  0  # atno 9615 bound_to 1704
   61.1094  -74.0796   -3.0787 LP  0  0  0  0  0  0  0  0  0  0  0  0  # atno 9616 bound_to 1704
   61.8317  -67.2988   -3.9928 LP  0  0  0  0  0  0  0  0  0  0  0  0  # atno 9619 bound_to 1882
   61.6482  -68.0159   -5.4484 LP  0  0  0  0  0  0  0  0  0  0  0  0  # atno 9620 bound_to 1882
   61.1361  -81.1034   -5.3945 LP  0  0  0  0  0  0  0  0  0  0  0  0  # atno 9664 bound_to 2256
   62.1641  -79.9293   -5.8756 LP  0  0  0  0  0  0  0  0  0  0  0  0  # atno 9665 bound_to 2256
   70.1815  -81.4332  -12.2860 LP  0  0  0  0  0  0  0  0  0  0  0  0  # atno 9690 bound_to 4362
   69.1526  -80.8638  -11.1530 LP  0  0  0  0  0  0  0  0  0  0  0  0  # atno 9691 bound_to 4362
   53.0388  -70.0469   -8.6168 LP  0  0  0  0  0  0  0  0  0  0  0  0  # atno 9698 bound_to 4472
   52.1821  -69.3358   -7.4223 LP  0  0  0  0  0  0  0  0  0  0  0  0  # atno 9699 bound_to 4472
   51.3739  -68.6514   -8.3392 LP  0  0  0  0  0  0  0  0  0  0  0  0  # atno 9700 bound_to 4474
   51.0877  -67.3358   -9.2633 LP  0  0  0  0  0  0  0  0  0  0  0  0  # atno 9701 bound_to 4474
   65.2330  -72.9355  -11.5121 LP  0  0  0  0  0  0  0  0  0  0  0  0  # atno 9709 bound_to 4506
   64.3373  -71.7559  -12.1998 LP  0  0  0  0  0  0  0  0  0  0  0  0  # atno 9710 bound_to 4506
   63.8917  -69.2715  -10.5500 LP  0  0  0  0  0  0  0  0  0  0  0  0  # atno 9711 bound_to 4508
   62.2680  -69.2342  -10.7197 LP  0  0  0  0  0  0  0  0  0  0  0  0  # atno 9712 bound_to 4508
   62.1800  -71.8927   -7.2714 LP  0  0  0  0  0  0  0  0  0  0  0  0  # atno 9713 bound_to 4510
   63.7682  -71.5129   -7.2584 LP  0  0  0  0  0  0  0  0  0  0  0  0  # atno 9714 bound_to 4510

$$$$
