C12H12ClN5O4S|Chlorsulfuron|mol|1|dock10
  -GOLD-   23022 1373D 1   1.00000     0.00000
 
 35 36  0  0  0  0  0  0  0  0  1 V2000
   49.1255   57.5474   44.6928 C   0  0  0  0  0  0  0  0  0  0  0  0
   50.2287   57.3992   45.7088 C   0  0  0  0  0  0  0  0  0  0  0  0
   50.8266   58.4729   46.1940 N   0  0  0  0  0  0  0  0  0  0  0  0
   51.8005   58.3451   47.0909 C   0  0  0  0  0  0  0  0  0  0  0  0
   52.1712   57.1368   47.4980 N   0  0  0  0  0  0  0  0  0  0  0  0
   51.5683   56.0608   47.0084 C   0  0  0  0  0  0  0  0  0  0  0  0
   50.5923   56.1955   46.1167 N   0  0  0  0  0  0  0  0  0  0  0  0
   51.9437   54.8279   47.4205 O   0  0  0  0  0  0  0  0  0  0  0  0
   52.4568   54.1474   46.2734 C   0  0  0  0  0  0  0  0  0  0  0  0
   52.4276   59.4710   47.5991 N   0  0  0  0  0  0  0  0  0  0  0  0
   53.4338   60.0491   46.9138 C   0  0  0  0  0  0  0  0  0  0  0  0
   53.7913   59.5825   45.8497 O   0  0  0  0  0  0  0  0  0  0  0  0
   54.0440   61.1444   47.4082 N   0  0  0  0  0  0  0  0  0  0  0  0
   55.3608   61.7805   46.6312 S   0  0  0  0  0  0  0  0  0  0  0  0
   55.0962   61.6371   45.2425 O   0  0  0  0  0  0  0  0  0  0  0  0
   55.6444   63.0061   47.2923 O   0  0  0  0  0  0  0  0  0  0  0  0
   56.7317   60.7263   46.9687 C   0  0  0  0  0  0  0  0  0  0  0  0
   57.5233   60.9557   48.0780 C   0  0  0  0  0  0  0  0  0  0  0  0
   58.5991   60.1287   48.3429 C   0  0  0  0  0  0  0  0  0  0  0  0
   58.8837   59.0722   47.4983 C   0  0  0  0  0  0  0  0  0  0  0  0
   58.0929   58.8419   46.3882 C   0  0  0  0  0  0  0  0  0  0  0  0
   57.0125   59.6652   46.1262 C   0  0  0  0  0  0  0  0  0  0  0  0
   56.0185   59.3763   44.7325 Cl  0  0  0  0  0  0  0  0  0  0  0  0
   49.5520   57.5402   43.6898 H   0  0  0  0  0  0  0  0  0  0  0  0
   48.4237   56.7197   44.7952 H   0  0  0  0  0  0  0  0  0  0  0  0
   48.6031   58.4896   44.8587 H   0  0  0  0  0  0  0  0  0  0  0  0
   52.7737   53.1440   46.5578 H   0  0  0  0  0  0  0  0  0  0  0  0
   51.6793   54.0809   45.5125 H   0  0  0  0  0  0  0  0  0  0  0  0
   53.3088   54.6983   45.8751 H   0  0  0  0  0  0  0  0  0  0  0  0
   52.1424   59.8433   48.4483 H   0  0  0  0  0  0  0  0  0  0  0  0
   53.7116   61.5602   48.2191 H   0  0  0  0  0  0  0  0  0  0  0  0
   57.3018   61.7815   48.7379 H   0  0  0  0  0  0  0  0  0  0  0  0
   59.2175   60.3084   49.2099 H   0  0  0  0  0  0  0  0  0  0  0  0
   59.7244   58.4266   47.7057 H   0  0  0  0  0  0  0  0  0  0  0  0
   58.3158   58.0169   45.7279 H   0  0  0  0  0  0  0  0  0  0  0  0
  1  2  1  0  0  0  0
  2  3  2  0  0  0  0
  3  4  1  0  0  0  0
  4  5  2  0  0  0  0
  5  6  1  0  0  0  0
  6  7  2  0  0  0  0
  2  7  1  0  0  0  0
  6  8  1  0  0  0  0
  8  9  1  0  0  0  0
  4 10  1  0  0  0  0
 10 11  1  0  0  0  0
 11 12  2  0  0  0  0
 11 13  1  0  0  0  0
 13 14  1  0  0  0  0
 14 15  2  0  0  0  0
 14 16  2  0  0  0  0
 14 17  1  0  0  0  0
 17 18  2  0  0  0  0
 18 19  1  0  0  0  0
 19 20  2  0  0  0  0
 20 21  1  0  0  0  0
 21 22  2  0  0  0  0
 17 22  1  0  0  0  0
 22 23  1  0  0  0  0
  1 24  1  0  0  0  0
  1 25  1  0  0  0  0
  1 26  1  0  0  0  0
  9 27  1  0  0  0  0
  9 28  1  0  0  0  0
  9 29  1  0  0  0  0
 10 30  1  0  0  0  0
 13 31  1  0  0  0  0
 18 32  1  0  0  0  0
 19 33  1  0  0  0  0
 20 34  1  0  0  0  0
 21 35  1  0  0  0  0
M  END
> <Gold.Version>
2021.2.0

> <Gold.Id.Protein>
1YHZ|1YHZ_protein|mol2

> <Gold.PLP.Fitness>
33.6882

> <Gold.PLP.PLP>
-26.8480

> <Gold.PLP.part.hbond>
-4.7061

> <Gold.PLP.part.metal>
0.0000

> <Gold.PLP.part.buried>
-4.1486

> <Gold.PLP.part.nonpolar>
-18.8755

> <Gold.PLP.part.repulsive>
0.4671

> <Gold.PLP.ligand.clash>
0.2238

> <Gold.PLP.ligand.torsion>
2.2176

> <Gold.PLP.Chemscore.Hbond>
2.7360

> <Gold.PLP.Chemscore.CHOScore>
0.0000

> <Gold.PLP.Chemscore.Metal>
0.0000

> <Gold.Chemscore.Hbonds>
donor molecule, donor type, donor heavy atom, donor atom, acceptor molecule, acceptor atom, score
      L1  H    13    31       P1  2194  1.00
      P1  H  2205  5011       L1     5  0.74
      P1  H  4319  5515       L1     8  1.00

> <Gold.PLP.Chemscore.Internal.Correction>
3.2911

> <Gold.Protein.RotatedTorsions>
[ 6671 1667 1666 1664 ] final   26.37 input   60.00 | X-H torsion
[ 6844 1845 1844 1841 ] final  -88.72 input   60.00 | X-H torsion
[ 5051 2219 2218 2215 ] final  179.12 input   60.00 | X-H torsion
[ 5018 2233 2232 2231 ] final -137.65 input   59.99 | X-H torsion
[ 5515 4319 4318 4315 ] final  167.40 input   60.00 | X-H torsion
[ 5604 4440 4439 4437 ] final  -83.32 input   60.00 | X-H torsion
[ 5608 4442 4441 4439 ] final -143.88 input   60.00 | X-H torsion
[ 5645 4474 4473 4472 ] final -153.17 input   60.00 | X-H torsion
[ 5630 4476 4475 4473 ] final  133.67 input   60.00 | X-H torsion
[ 5635 4478 4477 4475 ] final  137.81 input   60.00 | X-H torsion

> <Gold.Protein.ActiveResidues>
 TYR305  THR331  LEU332  MET333  LEU349  GLY350  MET351  HIS352  GLY353  ASN358 
 VAL372  ARG373  PHE374  ASP375  ASP376  ARG377  VAL378  THR379  GLY380  LYS381 
 LEU382  PHE385  LYS403  ASN404  MET490  GLY508  GLY509  TRP574  ILE651  PRO652 
 SER653  GLY654  GLY655  FAD701 

> <Gold.Protein.RotatedAtoms>
   41.5741   53.5007   57.5524 H   0  0  0  0  0  0  0  0  0  0  0  0  # atno 5018 bound_to 2233
   42.9751   53.0217   58.2974 H   0  0  0  0  0  0  0  0  0  0  0  0  # atno 5019 bound_to 2233
   41.7555   53.7062   59.1869 H   0  0  0  0  0  0  0  0  0  0  0  0  # atno 5020 bound_to 2233
   49.9124   62.2109   56.1297 H   0  0  0  0  0  0  0  0  0  0  0  0  # atno 5051 bound_to 2219
   51.8034   55.0679   49.5005 H   0  0  0  0  0  0  0  0  0  0  0  0  # atno 5515 bound_to 4319
   54.9367   73.0123   53.6388 H   0  0  0  0  0  0  0  0  0  0  0  0  # atno 5604 bound_to 4440
   57.2880   76.9671   52.5276 H   0  0  0  0  0  0  0  0  0  0  0  0  # atno 5608 bound_to 4442
   59.6687   66.0086   50.3535 H   0  0  0  0  0  0  0  0  0  0  0  0  # atno 5630 bound_to 4476
   59.4492   64.2497   55.0556 H   0  0  0  0  0  0  0  0  0  0  0  0  # atno 5635 bound_to 4478
   58.3271   63.4416   50.1133 H   0  0  0  0  0  0  0  0  0  0  0  0  # atno 5645 bound_to 4474
   55.8234   65.6261   58.2538 H   0  0  0  0  0  0  0  0  0  0  0  0  # atno 6671 bound_to 1667
   61.5708   67.6498   57.8068 H   0  0  0  0  0  0  0  0  0  0  0  0  # atno 6844 bound_to 1845
   55.3612   67.1823   58.1411 LP  0  0  0  0  0  0  0  0  0  0  0  0  # atno 8952 bound_to 1667
   54.3062   66.0499   58.6618 LP  0  0  0  0  0  0  0  0  0  0  0  0  # atno 8953 bound_to 1667
   61.2225   67.2951   56.2573 LP  0  0  0  0  0  0  0  0  0  0  0  0  # atno 8956 bound_to 1845
   62.5822   66.7092   56.9463 LP  0  0  0  0  0  0  0  0  0  0  0  0  # atno 8957 bound_to 1845
   50.2635   60.6294   56.2825 LP  0  0  0  0  0  0  0  0  0  0  0  0  # atno 9001 bound_to 2219
   51.4220   61.6854   55.8251 LP  0  0  0  0  0  0  0  0  0  0  0  0  # atno 9002 bound_to 2219
   51.9346   55.6409   51.0178 LP  0  0  0  0  0  0  0  0  0  0  0  0  # atno 9031 bound_to 4319
   50.6164   54.7838   50.5767 LP  0  0  0  0  0  0  0  0  0  0  0  0  # atno 9032 bound_to 4319
   54.7750   74.6305   53.5833 LP  0  0  0  0  0  0  0  0  0  0  0  0  # atno 9039 bound_to 4440
   55.1672   73.8940   54.9869 LP  0  0  0  0  0  0  0  0  0  0  0  0  # atno 9040 bound_to 4440
   56.0355   76.9129   53.5651 LP  0  0  0  0  0  0  0  0  0  0  0  0  # atno 9041 bound_to 4442
   56.0285   75.9827   52.2230 LP  0  0  0  0  0  0  0  0  0  0  0  0  # atno 9042 bound_to 4442
   58.7039   61.8756   50.3451 LP  0  0  0  0  0  0  0  0  0  0  0  0  # atno 9052 bound_to 4474
   59.8083   62.8993   49.7135 LP  0  0  0  0  0  0  0  0  0  0  0  0  # atno 9053 bound_to 4474
   60.5445   64.6425   50.2316 LP  0  0  0  0  0  0  0  0  0  0  0  0  # atno 9054 bound_to 4476
   60.9143   65.7540   51.3693 LP  0  0  0  0  0  0  0  0  0  0  0  0  # atno 9055 bound_to 4476
   58.5629   63.5505   53.8836 LP  0  0  0  0  0  0  0  0  0  0  0  0  # atno 9056 bound_to 4478
   58.0426   64.9256   54.5943 LP  0  0  0  0  0  0  0  0  0  0  0  0  # atno 9057 bound_to 4478

$$$$
