C12H12ClN5O4S|Chlorsulfuron|mol|1|dock7
  -GOLD-   23022 1373D 1   1.00000     0.00000
 
 35 36  0  0  0  0  0  0  0  0  1 V2000
   49.9899   57.1796   43.9805 C   0  0  0  0  0  0  0  0  0  0  0  0
   50.7347   57.0157   45.2804 C   0  0  0  0  0  0  0  0  0  0  0  0
   51.2642   58.0706   45.8742 N   0  0  0  0  0  0  0  0  0  0  0  0
   51.9221   57.9288   47.0215 C   0  0  0  0  0  0  0  0  0  0  0  0
   52.0461   56.7256   47.5694 N   0  0  0  0  0  0  0  0  0  0  0  0
   51.5128   55.6686   46.9699 C   0  0  0  0  0  0  0  0  0  0  0  0
   50.8521   55.8176   45.8266 N   0  0  0  0  0  0  0  0  0  0  0  0
   51.6375   54.4409   47.5249 O   0  0  0  0  0  0  0  0  0  0  0  0
   52.9602   53.9869   47.2306 C   0  0  0  0  0  0  0  0  0  0  0  0
   52.4776   59.0348   47.6438 N   0  0  0  0  0  0  0  0  0  0  0  0
   53.3890   59.7863   46.9947 C   0  0  0  0  0  0  0  0  0  0  0  0
   53.7235   59.4935   45.8633 O   0  0  0  0  0  0  0  0  0  0  0  0
   53.9295   60.8624   47.6001 N   0  0  0  0  0  0  0  0  0  0  0  0
   55.1394   61.7117   46.8536 S   0  0  0  0  0  0  0  0  0  0  0  0
   54.8175   61.7066   45.4696 O   0  0  0  0  0  0  0  0  0  0  0  0
   55.3418   62.8732   47.6467 O   0  0  0  0  0  0  0  0  0  0  0  0
   56.6179   60.7653   47.0047 C   0  0  0  0  0  0  0  0  0  0  0  0
   57.4442   60.9439   48.0978 C   0  0  0  0  0  0  0  0  0  0  0  0
   58.6045   60.2015   48.2165 C   0  0  0  0  0  0  0  0  0  0  0  0
   58.9390   59.2805   47.2417 C   0  0  0  0  0  0  0  0  0  0  0  0
   58.1135   59.1011   46.1475 C   0  0  0  0  0  0  0  0  0  0  0  0
   56.9492   59.8391   46.0315 C   0  0  0  0  0  0  0  0  0  0  0  0
   55.9118   59.6140   44.6578 Cl  0  0  0  0  0  0  0  0  0  0  0  0
   50.6848   57.0727   43.1476 H   0  0  0  0  0  0  0  0  0  0  0  0
   49.2148   56.4168   43.9072 H   0  0  0  0  0  0  0  0  0  0  0  0
   49.5315   58.1680   43.9466 H   0  0  0  0  0  0  0  0  0  0  0  0
   53.1082   52.9961   47.6600 H   0  0  0  0  0  0  0  0  0  0  0  0
   53.0957   53.9387   46.1502 H   0  0  0  0  0  0  0  0  0  0  0  0
   53.6855   54.6799   47.6571 H   0  0  0  0  0  0  0  0  0  0  0  0
   52.2107   59.2685   48.5466 H   0  0  0  0  0  0  0  0  0  0  0  0
   53.6097   61.1393   48.4729 H   0  0  0  0  0  0  0  0  0  0  0  0
   57.1837   61.6640   48.8595 H   0  0  0  0  0  0  0  0  0  0  0  0
   59.2499   60.3415   49.0710 H   0  0  0  0  0  0  0  0  0  0  0  0
   59.8456   58.7010   47.3348 H   0  0  0  0  0  0  0  0  0  0  0  0
   58.3754   58.3820   45.3855 H   0  0  0  0  0  0  0  0  0  0  0  0
  1  2  1  0  0  0  0
  2  3  2  0  0  0  0
  3  4  1  0  0  0  0
  4  5  2  0  0  0  0
  5  6  1  0  0  0  0
  6  7  2  0  0  0  0
  2  7  1  0  0  0  0
  6  8  1  0  0  0  0
  8  9  1  0  0  0  0
  4 10  1  0  0  0  0
 10 11  1  0  0  0  0
 11 12  2  0  0  0  0
 11 13  1  0  0  0  0
 13 14  1  0  0  0  0
 14 15  2  0  0  0  0
 14 16  2  0  0  0  0
 14 17  1  0  0  0  0
 17 18  2  0  0  0  0
 18 19  1  0  0  0  0
 19 20  2  0  0  0  0
 20 21  1  0  0  0  0
 21 22  2  0  0  0  0
 17 22  1  0  0  0  0
 22 23  1  0  0  0  0
  1 24  1  0  0  0  0
  1 25  1  0  0  0  0
  1 26  1  0  0  0  0
  9 27  1  0  0  0  0
  9 28  1  0  0  0  0
  9 29  1  0  0  0  0
 10 30  1  0  0  0  0
 13 31  1  0  0  0  0
 18 32  1  0  0  0  0
 19 33  1  0  0  0  0
 20 34  1  0  0  0  0
 21 35  1  0  0  0  0
M  END
> <Gold.Version>
2021.2.0

> <Gold.Id.Protein>
1YHZ|1YHZ_protein|mol2

> <Gold.PLP.Fitness>
35.1220

> <Gold.PLP.PLP>
-26.0376

> <Gold.PLP.part.hbond>
-4.0000

> <Gold.PLP.part.metal>
0.0000

> <Gold.PLP.part.buried>
-4.9363

> <Gold.PLP.part.nonpolar>
-19.2800

> <Gold.PLP.part.repulsive>
1.5558

> <Gold.PLP.ligand.clash>
0.1210

> <Gold.PLP.ligand.torsion>
2.2587

> <Gold.PLP.Chemscore.Hbond>
3.4772

> <Gold.PLP.Chemscore.CHOScore>
0.0000

> <Gold.PLP.Chemscore.Metal>
0.0000

> <Gold.Chemscore.Hbonds>
donor molecule, donor type, donor heavy atom, donor atom, acceptor molecule, acceptor atom, score
      L1  H    10    30       P1  2195  0.50
      L1  H    13    31       P1  2194  1.00
      P1  H  2205  5011       L1     5  0.98
      P1  H  4319  5515       L1     8  1.00

> <Gold.PLP.Chemscore.Internal.Correction>
3.2911

> <Gold.Protein.RotatedTorsions>
[ 6671 1667 1666 1664 ] final  173.27 input   60.00 | X-H torsion
[ 6844 1845 1844 1841 ] final  163.76 input   60.00 | X-H torsion
[ 5051 2219 2218 2215 ] final   97.03 input   60.00 | X-H torsion
[ 5018 2233 2232 2231 ] final   67.96 input   59.99 | X-H torsion
[ 5515 4319 4318 4315 ] final -163.90 input   60.00 | X-H torsion
[ 5604 4440 4439 4437 ] final -170.72 input   60.00 | X-H torsion
[ 5608 4442 4441 4439 ] final  145.49 input   60.00 | X-H torsion
[ 5645 4474 4473 4472 ] final   45.53 input   60.00 | X-H torsion
[ 5630 4476 4475 4473 ] final -124.64 input   60.00 | X-H torsion
[ 5635 4478 4477 4475 ] final  148.13 input   60.00 | X-H torsion

> <Gold.Protein.ActiveResidues>
 TYR305  THR331  LEU332  MET333  LEU349  GLY350  MET351  HIS352  GLY353  ASN358 
 VAL372  ARG373  PHE374  ASP375  ASP376  ARG377  VAL378  THR379  GLY380  LYS381 
 LEU382  PHE385  LYS403  ASN404  MET490  GLY508  GLY509  TRP574  ILE651  PRO652 
 SER653  GLY654  GLY655  FAD701 

> <Gold.Protein.RotatedAtoms>
   42.2729   53.4981   59.2827 H   0  0  0  0  0  0  0  0  0  0  0  0  # atno 5018 bound_to 2233
   41.2686   53.7078   57.9809 H   0  0  0  0  0  0  0  0  0  0  0  0  # atno 5019 bound_to 2233
   42.7634   53.0226   57.7727 H   0  0  0  0  0  0  0  0  0  0  0  0  # atno 5020 bound_to 2233
   49.7885   61.0072   56.3472 H   0  0  0  0  0  0  0  0  0  0  0  0  # atno 5051 bound_to 2219
   51.3975   54.8436   49.4850 H   0  0  0  0  0  0  0  0  0  0  0  0  # atno 5515 bound_to 4319
   54.7354   74.2279   53.2450 H   0  0  0  0  0  0  0  0  0  0  0  0  # atno 5604 bound_to 4440
   56.7340   77.2386   53.4170 H   0  0  0  0  0  0  0  0  0  0  0  0  # atno 5608 bound_to 4442
   60.7236   65.9836   51.3510 H   0  0  0  0  0  0  0  0  0  0  0  0  # atno 5630 bound_to 4476
   59.3835   64.3907   55.1197 H   0  0  0  0  0  0  0  0  0  0  0  0  # atno 5635 bound_to 4478
   59.3282   61.8889   50.1234 H   0  0  0  0  0  0  0  0  0  0  0  0  # atno 5645 bound_to 4474
   54.2843   66.4822   58.5999 H   0  0  0  0  0  0  0  0  0  0  0  0  # atno 6671 bound_to 1667
   61.1133   67.4080   56.3879 H   0  0  0  0  0  0  0  0  0  0  0  0  # atno 6844 bound_to 1845
   55.4800   65.3971   58.3978 LP  0  0  0  0  0  0  0  0  0  0  0  0  # atno 8952 bound_to 1667
   55.7374   66.9731   58.0565 LP  0  0  0  0  0  0  0  0  0  0  0  0  # atno 8953 bound_to 1667
   62.5201   66.6764   56.7537 LP  0  0  0  0  0  0  0  0  0  0  0  0  # atno 8956 bound_to 1845
   61.7453   67.5714   57.8786 LP  0  0  0  0  0  0  0  0  0  0  0  0  # atno 8957 bound_to 1845
   51.3603   61.0858   55.9334 LP  0  0  0  0  0  0  0  0  0  0  0  0  # atno 9001 bound_to 2219
   50.4500   62.4413   55.9551 LP  0  0  0  0  0  0  0  0  0  0  0  0  # atno 9002 bound_to 2219
   52.2048   55.6615   50.6371 LP  0  0  0  0  0  0  0  0  0  0  0  0  # atno 9031 bound_to 4319
   50.7550   54.9891   50.9730 LP  0  0  0  0  0  0  0  0  0  0  0  0  # atno 9032 bound_to 4319
   55.0849   74.3912   54.8258 LP  0  0  0  0  0  0  0  0  0  0  0  0  # atno 9039 bound_to 4440
   55.0601   72.9090   54.1410 LP  0  0  0  0  0  0  0  0  0  0  0  0  # atno 9040 bound_to 4440
   55.6255   76.1802   52.8701 LP  0  0  0  0  0  0  0  0  0  0  0  0  # atno 9041 bound_to 4442
   56.9965   76.4420   52.0225 LP  0  0  0  0  0  0  0  0  0  0  0  0  # atno 9042 bound_to 4442
   59.4480   63.4582   49.7099 LP  0  0  0  0  0  0  0  0  0  0  0  0  # atno 9052 bound_to 4474
   58.0560   62.8805   50.3386 LP  0  0  0  0  0  0  0  0  0  0  0  0  # atno 9053 bound_to 4474
   59.6341   65.7844   50.1587 LP  0  0  0  0  0  0  0  0  0  0  0  0  # atno 9054 bound_to 4476
   60.7624   64.6373   50.4377 LP  0  0  0  0  0  0  0  0  0  0  0  0  # atno 9055 bound_to 4476
   58.7107   63.4917   53.9420 LP  0  0  0  0  0  0  0  0  0  0  0  0  # atno 9056 bound_to 4478
   57.9610   64.8424   54.4713 LP  0  0  0  0  0  0  0  0  0  0  0  0  # atno 9057 bound_to 4478

$$$$
