C12H12ClN5O4S|Chlorsulfuron|mol|1|dock22
  -GOLD-   23022 1383D 1   1.00000     0.00000
 
 35 36  0  0  0  0  0  0  0  0  1 V2000
   50.3629   57.2557   43.8040 C   0  0  0  0  0  0  0  0  0  0  0  0
   50.9570   57.0848   45.1784 C   0  0  0  0  0  0  0  0  0  0  0  0
   51.5213   58.1139   45.7853 N   0  0  0  0  0  0  0  0  0  0  0  0
   52.0464   57.9659   46.9983 C   0  0  0  0  0  0  0  0  0  0  0  0
   52.0027   56.7823   47.5988 N   0  0  0  0  0  0  0  0  0  0  0  0
   51.4351   55.7512   46.9861 C   0  0  0  0  0  0  0  0  0  0  0  0
   50.9075   55.9069   45.7764 N   0  0  0  0  0  0  0  0  0  0  0  0
   51.3892   54.5435   47.5946 O   0  0  0  0  0  0  0  0  0  0  0  0
   52.1587   53.6466   46.7910 C   0  0  0  0  0  0  0  0  0  0  0  0
   52.6384   59.0449   47.6342 N   0  0  0  0  0  0  0  0  0  0  0  0
   53.5756   59.7726   46.9950 C   0  0  0  0  0  0  0  0  0  0  0  0
   53.9015   59.4820   45.8604 O   0  0  0  0  0  0  0  0  0  0  0  0
   54.1517   60.8223   47.6136 N   0  0  0  0  0  0  0  0  0  0  0  0
   55.3907   61.6388   46.8784 S   0  0  0  0  0  0  0  0  0  0  0  0
   55.0636   61.6735   45.4960 O   0  0  0  0  0  0  0  0  0  0  0  0
   55.6411   62.7757   47.6932 O   0  0  0  0  0  0  0  0  0  0  0  0
   56.8320   60.6331   47.0041 C   0  0  0  0  0  0  0  0  0  0  0  0
   57.6661   60.7545   48.0992 C   0  0  0  0  0  0  0  0  0  0  0  0
   58.7971   59.9656   48.1980 C   0  0  0  0  0  0  0  0  0  0  0  0
   59.0946   59.0553   47.2013 C   0  0  0  0  0  0  0  0  0  0  0  0
   58.2614   58.9332   46.1051 C   0  0  0  0  0  0  0  0  0  0  0  0
   57.1260   59.7177   46.0089 C   0  0  0  0  0  0  0  0  0  0  0  0
   56.0788   59.5646   44.6329 Cl  0  0  0  0  0  0  0  0  0  0  0  0
   51.1236   57.0498   43.0511 H   0  0  0  0  0  0  0  0  0  0  0  0
   49.5310   56.5626   43.6790 H   0  0  0  0  0  0  0  0  0  0  0  0
   50.0043   58.2785   43.6878 H   0  0  0  0  0  0  0  0  0  0  0  0
   52.1509   52.6552   47.2440 H   0  0  0  0  0  0  0  0  0  0  0  0
   51.7271   53.5929   45.7916 H   0  0  0  0  0  0  0  0  0  0  0  0
   53.1850   54.0077   46.7246 H   0  0  0  0  0  0  0  0  0  0  0  0
   52.3784   59.2768   48.5396 H   0  0  0  0  0  0  0  0  0  0  0  0
   53.8404   61.0996   48.4894 H   0  0  0  0  0  0  0  0  0  0  0  0
   57.4345   61.4662   48.8779 H   0  0  0  0  0  0  0  0  0  0  0  0
   59.4487   60.0608   49.0540 H   0  0  0  0  0  0  0  0  0  0  0  0
   59.9785   58.4394   47.2789 H   0  0  0  0  0  0  0  0  0  0  0  0
   58.4943   58.2224   45.3261 H   0  0  0  0  0  0  0  0  0  0  0  0
  1  2  1  0  0  0  0
  2  3  2  0  0  0  0
  3  4  1  0  0  0  0
  4  5  2  0  0  0  0
  5  6  1  0  0  0  0
  6  7  2  0  0  0  0
  2  7  1  0  0  0  0
  6  8  1  0  0  0  0
  8  9  1  0  0  0  0
  4 10  1  0  0  0  0
 10 11  1  0  0  0  0
 11 12  2  0  0  0  0
 11 13  1  0  0  0  0
 13 14  1  0  0  0  0
 14 15  2  0  0  0  0
 14 16  2  0  0  0  0
 14 17  1  0  0  0  0
 17 18  2  0  0  0  0
 18 19  1  0  0  0  0
 19 20  2  0  0  0  0
 20 21  1  0  0  0  0
 21 22  2  0  0  0  0
 17 22  1  0  0  0  0
 22 23  1  0  0  0  0
  1 24  1  0  0  0  0
  1 25  1  0  0  0  0
  1 26  1  0  0  0  0
  9 27  1  0  0  0  0
  9 28  1  0  0  0  0
  9 29  1  0  0  0  0
 10 30  1  0  0  0  0
 13 31  1  0  0  0  0
 18 32  1  0  0  0  0
 19 33  1  0  0  0  0
 20 34  1  0  0  0  0
 21 35  1  0  0  0  0
M  END
> <Gold.Version>
2021.2.0

> <Gold.Id.Protein>
1YHZ|1YHZ_protein|mol2

> <Gold.PLP.Fitness>
34.6307

> <Gold.PLP.PLP>
-24.3994

> <Gold.PLP.part.hbond>
-4.0000

> <Gold.PLP.part.metal>
0.0000

> <Gold.PLP.part.buried>
-4.8321

> <Gold.PLP.part.nonpolar>
-17.4175

> <Gold.PLP.part.repulsive>
2.0633

> <Gold.PLP.ligand.clash>
0.2133

> <Gold.PLP.ligand.torsion>
1.9355

> <Gold.PLP.Chemscore.Hbond>
3.6754

> <Gold.PLP.Chemscore.CHOScore>
0.0000

> <Gold.PLP.Chemscore.Metal>
0.0000

> <Gold.Chemscore.Hbonds>
donor molecule, donor type, donor heavy atom, donor atom, acceptor molecule, acceptor atom, score
      L1  H    10    30       P1  2195  0.72
      L1  H    13    31       P1  2194  1.00
      P1  H  2205  5011       L1     5  0.95
      P1  H  4319  5515       L1     8  1.00

> <Gold.PLP.Chemscore.Internal.Correction>
3.2893

> <Gold.Protein.RotatedTorsions>
[ 6671 1667 1666 1664 ] final  -48.90 input   60.00 | X-H torsion
[ 6844 1845 1844 1841 ] final   87.28 input   60.00 | X-H torsion
[ 5051 2219 2218 2215 ] final  -35.48 input   60.00 | X-H torsion
[ 5018 2233 2232 2231 ] final   96.86 input   59.99 | X-H torsion
[ 5515 4319 4318 4315 ] final  178.13 input   60.00 | X-H torsion
[ 5604 4440 4439 4437 ] final   50.02 input   60.00 | X-H torsion
[ 5608 4442 4441 4439 ] final   87.93 input   60.00 | X-H torsion
[ 5645 4474 4473 4472 ] final  -51.61 input   60.00 | X-H torsion
[ 5630 4476 4475 4473 ] final  -92.70 input   60.00 | X-H torsion
[ 5635 4478 4477 4475 ] final   70.44 input   60.00 | X-H torsion

> <Gold.Protein.ActiveResidues>
 TYR305  THR331  LEU332  MET333  LEU349  GLY350  MET351  HIS352  GLY353  ASN358 
 VAL372  ARG373  PHE374  ASP375  ASP376  ARG377  VAL378  THR379  GLY380  LYS381 
 LEU382  PHE385  LYS403  ASN404  MET490  GLY508  GLY509  TRP574  ILE651  PRO652 
 SER653  GLY654  GLY655  FAD701 

> <Gold.Protein.RotatedAtoms>
   41.8345   53.6783   59.2242 H   0  0  0  0  0  0  0  0  0  0  0  0  # atno 5018 bound_to 2233
   41.5093   53.5379   57.6049 H   0  0  0  0  0  0  0  0  0  0  0  0  # atno 5019 bound_to 2233
   42.9612   53.0123   58.2073 H   0  0  0  0  0  0  0  0  0  0  0  0  # atno 5020 bound_to 2233
   51.4183   61.2776   55.8915 H   0  0  0  0  0  0  0  0  0  0  0  0  # atno 5051 bound_to 2219
   51.6567   54.9780   49.4685 H   0  0  0  0  0  0  0  0  0  0  0  0  # atno 5515 bound_to 4319
   55.1414   74.1072   54.9483 H   0  0  0  0  0  0  0  0  0  0  0  0  # atno 5604 bound_to 4440
   55.9404   76.8254   53.5281 H   0  0  0  0  0  0  0  0  0  0  0  0  # atno 5608 bound_to 4442
   61.0127   65.5578   51.3297 H   0  0  0  0  0  0  0  0  0  0  0  0  # atno 5630 bound_to 4476
   59.2558   63.5178   54.3446 H   0  0  0  0  0  0  0  0  0  0  0  0  # atno 5635 bound_to 4478
   59.6897   63.1754   49.6932 H   0  0  0  0  0  0  0  0  0  0  0  0  # atno 5645 bound_to 4474
   55.9179   66.7451   58.0394 H   0  0  0  0  0  0  0  0  0  0  0  0  # atno 6671 bound_to 1667
   62.0641   66.7633   56.2343 H   0  0  0  0  0  0  0  0  0  0  0  0  # atno 6844 bound_to 1845
   54.3655   66.7523   58.5273 LP  0  0  0  0  0  0  0  0  0  0  0  0  # atno 8952 bound_to 1667
   55.2067   65.3531   58.4916 LP  0  0  0  0  0  0  0  0  0  0  0  0  # atno 8953 bound_to 1667
   62.3188   67.1825   57.7859 LP  0  0  0  0  0  0  0  0  0  0  0  0  # atno 8956 bound_to 1845
   60.9892   67.7144   57.0012 LP  0  0  0  0  0  0  0  0  0  0  0  0  # atno 8957 bound_to 1845
   50.2546   62.4089   56.0097 LP  0  0  0  0  0  0  0  0  0  0  0  0  # atno 9001 bound_to 2219
   49.9142   60.8458   56.3378 LP  0  0  0  0  0  0  0  0  0  0  0  0  # atno 9002 bound_to 2219
   52.0539   55.6632   50.8900 LP  0  0  0  0  0  0  0  0  0  0  0  0  # atno 9031 bound_to 4319
   50.6450   54.8519   50.7368 LP  0  0  0  0  0  0  0  0  0  0  0  0  # atno 9032 bound_to 4319
   54.9871   72.9307   53.8349 LP  0  0  0  0  0  0  0  0  0  0  0  0  # atno 9039 bound_to 4440
   54.7490   74.4911   53.4165 LP  0  0  0  0  0  0  0  0  0  0  0  0  # atno 9040 bound_to 4440
   56.1363   75.9940   52.1430 LP  0  0  0  0  0  0  0  0  0  0  0  0  # atno 9041 bound_to 4442
   57.2847   77.0443   52.6376 LP  0  0  0  0  0  0  0  0  0  0  0  0  # atno 9042 bound_to 4442
   58.1522   63.2228   50.2241 LP  0  0  0  0  0  0  0  0  0  0  0  0  # atno 9052 bound_to 4474
   58.9878   61.8202   50.2576 LP  0  0  0  0  0  0  0  0  0  0  0  0  # atno 9053 bound_to 4474
   59.7356   66.1494   50.5131 LP  0  0  0  0  0  0  0  0  0  0  0  0  # atno 9054 bound_to 4476
   60.3697   64.7011   50.1047 LP  0  0  0  0  0  0  0  0  0  0  0  0  # atno 9055 bound_to 4476
   57.8870   64.3365   54.0221 LP  0  0  0  0  0  0  0  0  0  0  0  0  # atno 9056 bound_to 4478
   58.9133   64.8767   55.1717 LP  0  0  0  0  0  0  0  0  0  0  0  0  # atno 9057 bound_to 4478

$$$$
