C12H12ClN5O4S|Chlorsulfuron|mol|1|dock20
  -GOLD-   23022 1383D 1   1.00000     0.00000
 
 35 36  0  0  0  0  0  0  0  0  1 V2000
   54.6605   51.1216   44.3018 C   0  0  0  0  0  0  0  0  0  0  0  0
   55.6372   52.2319   44.5928 C   0  0  0  0  0  0  0  0  0  0  0  0
   55.3361   53.4767   44.2681 N   0  0  0  0  0  0  0  0  0  0  0  0
   56.1962   54.4585   44.5238 C   0  0  0  0  0  0  0  0  0  0  0  0
   57.3581   54.1860   45.1059 N   0  0  0  0  0  0  0  0  0  0  0  0
   57.6569   52.9345   45.4306 C   0  0  0  0  0  0  0  0  0  0  0  0
   56.7910   51.9588   45.1774 N   0  0  0  0  0  0  0  0  0  0  0  0
   58.8401   52.6529   46.0235 O   0  0  0  0  0  0  0  0  0  0  0  0
   59.4982   51.6914   45.1961 C   0  0  0  0  0  0  0  0  0  0  0  0
   55.8805   55.7636   44.1828 N   0  0  0  0  0  0  0  0  0  0  0  0
   55.6101   56.6655   45.1471 C   0  0  0  0  0  0  0  0  0  0  0  0
   55.6432   56.3337   46.3161 O   0  0  0  0  0  0  0  0  0  0  0  0
   55.3028   57.9352   44.8154 N   0  0  0  0  0  0  0  0  0  0  0  0
   54.8479   59.0108   45.9895 S   0  0  0  0  0  0  0  0  0  0  0  0
   54.4009   60.1696   45.2993 O   0  0  0  0  0  0  0  0  0  0  0  0
   54.0812   58.2622   46.9228 O   0  0  0  0  0  0  0  0  0  0  0  0
   56.3059   59.4989   46.8501 C   0  0  0  0  0  0  0  0  0  0  0  0
   57.3747   58.6284   46.9482 C   0  0  0  0  0  0  0  0  0  0  0  0
   58.5187   59.0112   47.6235 C   0  0  0  0  0  0  0  0  0  0  0  0
   58.5941   60.2646   48.2013 C   0  0  0  0  0  0  0  0  0  0  0  0
   57.5255   61.1361   48.1043 C   0  0  0  0  0  0  0  0  0  0  0  0
   56.3830   60.7560   47.4231 C   0  0  0  0  0  0  0  0  0  0  0  0
   55.0409   61.8502   47.3004 Cl  0  0  0  0  0  0  0  0  0  0  0  0
   54.8554   50.7173   43.3086 H   0  0  0  0  0  0  0  0  0  0  0  0
   54.7759   50.3322   45.0445 H   0  0  0  0  0  0  0  0  0  0  0  0
   53.6437   51.5125   44.3418 H   0  0  0  0  0  0  0  0  0  0  0  0
   60.4614   51.4323   45.6357 H   0  0  0  0  0  0  0  0  0  0  0  0
   58.8815   50.7960   45.1186 H   0  0  0  0  0  0  0  0  0  0  0  0
   59.6536   52.1125   44.2028 H   0  0  0  0  0  0  0  0  0  0  0  0
   55.8540   56.0283   43.2499 H   0  0  0  0  0  0  0  0  0  0  0  0
   55.3482   58.2189   43.8889 H   0  0  0  0  0  0  0  0  0  0  0  0
   57.3161   57.6486   46.4975 H   0  0  0  0  0  0  0  0  0  0  0  0
   59.3538   58.3306   47.6999 H   0  0  0  0  0  0  0  0  0  0  0  0
   59.4880   60.5629   48.7290 H   0  0  0  0  0  0  0  0  0  0  0  0
   57.5842   62.1151   48.5565 H   0  0  0  0  0  0  0  0  0  0  0  0
  1  2  1  0  0  0  0
  2  3  2  0  0  0  0
  3  4  1  0  0  0  0
  4  5  2  0  0  0  0
  5  6  1  0  0  0  0
  6  7  2  0  0  0  0
  2  7  1  0  0  0  0
  6  8  1  0  0  0  0
  8  9  1  0  0  0  0
  4 10  1  0  0  0  0
 10 11  1  0  0  0  0
 11 12  2  0  0  0  0
 11 13  1  0  0  0  0
 13 14  1  0  0  0  0
 14 15  2  0  0  0  0
 14 16  2  0  0  0  0
 14 17  1  0  0  0  0
 17 18  2  0  0  0  0
 18 19  1  0  0  0  0
 19 20  2  0  0  0  0
 20 21  1  0  0  0  0
 21 22  2  0  0  0  0
 17 22  1  0  0  0  0
 22 23  1  0  0  0  0
  1 24  1  0  0  0  0
  1 25  1  0  0  0  0
  1 26  1  0  0  0  0
  9 27  1  0  0  0  0
  9 28  1  0  0  0  0
  9 29  1  0  0  0  0
 10 30  1  0  0  0  0
 13 31  1  0  0  0  0
 18 32  1  0  0  0  0
 19 33  1  0  0  0  0
 20 34  1  0  0  0  0
 21 35  1  0  0  0  0
M  END
> <Gold.Version>
2021.2.0

> <Gold.Id.Protein>
1YHZ|1YHZ_protein|mol2

> <Gold.PLP.Fitness>
36.5245

> <Gold.PLP.PLP>
-37.9823

> <Gold.PLP.part.hbond>
-1.7697

> <Gold.PLP.part.metal>
0.0000

> <Gold.PLP.part.buried>
-5.2455

> <Gold.PLP.part.nonpolar>
-30.8185

> <Gold.PLP.part.repulsive>
0.0989

> <Gold.PLP.ligand.clash>
0.0000

> <Gold.PLP.ligand.torsion>
2.3735

> <Gold.PLP.Chemscore.Hbond>
0.0000

> <Gold.PLP.Chemscore.CHOScore>
0.0000

> <Gold.PLP.Chemscore.Metal>
0.0000

> <Gold.PLP.Chemscore.Internal.Correction>
3.2893

> <Gold.Protein.RotatedTorsions>
[ 6671 1667 1666 1664 ] final   94.89 input   60.00 | X-H torsion
[ 6844 1845 1844 1841 ] final  -49.33 input   60.00 | X-H torsion
[ 5051 2219 2218 2215 ] final -142.92 input   60.00 | X-H torsion
[ 5018 2233 2232 2231 ] final   29.71 input   59.99 | X-H torsion
[ 5515 4319 4318 4315 ] final  159.65 input   60.00 | X-H torsion
[ 5604 4440 4439 4437 ] final   26.23 input   60.00 | X-H torsion
[ 5608 4442 4441 4439 ] final  108.51 input   60.00 | X-H torsion
[ 5645 4474 4473 4472 ] final  -16.00 input   60.00 | X-H torsion
[ 5630 4476 4475 4473 ] final  -87.91 input   60.00 | X-H torsion
[ 5635 4478 4477 4475 ] final  -56.75 input   60.00 | X-H torsion

> <Gold.Protein.ActiveResidues>
 TYR305  THR331  LEU332  MET333  LEU349  GLY350  MET351  HIS352  GLY353  ASN358 
 VAL372  ARG373  PHE374  ASP375  ASP376  ARG377  VAL378  THR379  GLY380  LYS381 
 LEU382  PHE385  LYS403  ASN404  MET490  GLY508  GLY509  TRP574  ILE651  PRO652 
 SER653  GLY654  GLY655  FAD701 

> <Gold.Protein.RotatedAtoms>
   42.7704   53.2341   59.0070 H   0  0  0  0  0  0  0  0  0  0  0  0  # atno 5018 bound_to 2233
   41.2721   53.8138   58.5989 H   0  0  0  0  0  0  0  0  0  0  0  0  # atno 5019 bound_to 2233
   42.2623   53.1806   57.4303 H   0  0  0  0  0  0  0  0  0  0  0  0  # atno 5020 bound_to 2233
   50.4518   62.4351   55.9581 H   0  0  0  0  0  0  0  0  0  0  0  0  # atno 5051 bound_to 2219
   51.9022   55.1350   49.5425 H   0  0  0  0  0  0  0  0  0  0  0  0  # atno 5515 bound_to 4319
   55.1812   73.7241   54.9703 H   0  0  0  0  0  0  0  0  0  0  0  0  # atno 5604 bound_to 4440
   56.2046   77.0240   53.5796 H   0  0  0  0  0  0  0  0  0  0  0  0  # atno 5608 bound_to 4442
   61.0409   65.4881   51.3078 H   0  0  0  0  0  0  0  0  0  0  0  0  # atno 5630 bound_to 4476
   57.8752   64.4342   54.0871 H   0  0  0  0  0  0  0  0  0  0  0  0  # atno 5635 bound_to 4478
   59.8294   62.6259   49.7728 H   0  0  0  0  0  0  0  0  0  0  0  0  # atno 5645 bound_to 4474
   54.8435   65.4395   58.5948 H   0  0  0  0  0  0  0  0  0  0  0  0  # atno 6671 bound_to 1667
   62.1154   67.3385   57.8756 H   0  0  0  0  0  0  0  0  0  0  0  0  # atno 6844 bound_to 1845
   56.0541   66.3828   58.0535 LP  0  0  0  0  0  0  0  0  0  0  0  0  # atno 8952 bound_to 1667
   54.6001   67.0374   58.4060 LP  0  0  0  0  0  0  0  0  0  0  0  0  # atno 8953 bound_to 1667
   60.9811   67.6244   56.7442 LP  0  0  0  0  0  0  0  0  0  0  0  0  # atno 8956 bound_to 1845
   62.2752   66.6934   56.3901 LP  0  0  0  0  0  0  0  0  0  0  0  0  # atno 8957 bound_to 1845
   49.7822   61.0039   56.3469 LP  0  0  0  0  0  0  0  0  0  0  0  0  # atno 9001 bound_to 2219
   51.3600   61.0851   55.9336 LP  0  0  0  0  0  0  0  0  0  0  0  0  # atno 9002 bound_to 2219
   51.8376   55.6143   51.0962 LP  0  0  0  0  0  0  0  0  0  0  0  0  # atno 9031 bound_to 4319
   50.6140   54.7428   50.4561 LP  0  0  0  0  0  0  0  0  0  0  0  0  # atno 9032 bound_to 4319
   54.8936   73.0972   53.4965 LP  0  0  0  0  0  0  0  0  0  0  0  0  # atno 9039 bound_to 4440
   54.8025   74.7104   53.7328 LP  0  0  0  0  0  0  0  0  0  0  0  0  # atno 9040 bound_to 4440
   55.8827   75.9903   52.3647 LP  0  0  0  0  0  0  0  0  0  0  0  0  # atno 9041 bound_to 4442
   57.2723   76.8480   52.3642 LP  0  0  0  0  0  0  0  0  0  0  0  0  # atno 9042 bound_to 4442
   58.5380   63.5891   50.0015 LP  0  0  0  0  0  0  0  0  0  0  0  0  # atno 9052 bound_to 4474
   58.4613   62.0074   50.4001 LP  0  0  0  0  0  0  0  0  0  0  0  0  # atno 9053 bound_to 4474
   59.7691   66.1884   50.5728 LP  0  0  0  0  0  0  0  0  0  0  0  0  # atno 9054 bound_to 4476
   60.3079   64.7322   50.0671 LP  0  0  0  0  0  0  0  0  0  0  0  0  # atno 9055 bound_to 4476
   59.0105   64.8121   55.1899 LP  0  0  0  0  0  0  0  0  0  0  0  0  # atno 9056 bound_to 4478
   59.1801   63.4781   54.2634 LP  0  0  0  0  0  0  0  0  0  0  0  0  # atno 9057 bound_to 4478

$$$$
