C12H12ClN5O4S|Chlorsulfuron|mol|1|dock21
  -GOLD-   23022 1383D 1   1.00000     0.00000
 
 35 36  0  0  0  0  0  0  0  0  1 V2000
   53.5607   50.9907   44.5621 C   0  0  0  0  0  0  0  0  0  0  0  0
   55.0431   51.0692   44.3021 C   0  0  0  0  0  0  0  0  0  0  0  0
   55.6689   52.2288   44.3999 N   0  0  0  0  0  0  0  0  0  0  0  0
   56.9772   52.3010   44.1711 C   0  0  0  0  0  0  0  0  0  0  0  0
   57.6536   51.2061   43.8442 N   0  0  0  0  0  0  0  0  0  0  0  0
   57.0215   50.0434   43.7471 C   0  0  0  0  0  0  0  0  0  0  0  0
   55.7153   49.9768   43.9822 N   0  0  0  0  0  0  0  0  0  0  0  0
   57.7074   48.9256   43.4137 O   0  0  0  0  0  0  0  0  0  0  0  0
   56.7660   48.0214   42.8321 C   0  0  0  0  0  0  0  0  0  0  0  0
   57.6330   53.5170   44.2731 N   0  0  0  0  0  0  0  0  0  0  0  0
   58.1251   53.9195   45.4616 C   0  0  0  0  0  0  0  0  0  0  0  0
   57.9933   53.2157   46.4439 O   0  0  0  0  0  0  0  0  0  0  0  0
   58.7631   55.1026   45.5610 N   0  0  0  0  0  0  0  0  0  0  0  0
   59.2564   55.6555   47.0420 S   0  0  0  0  0  0  0  0  0  0  0  0
   58.2351   55.2777   47.9549 O   0  0  0  0  0  0  0  0  0  0  0  0
   60.6282   55.3005   47.1493 O   0  0  0  0  0  0  0  0  0  0  0  0
   59.2207   57.4162   46.9856 C   0  0  0  0  0  0  0  0  0  0  0  0
   58.6207   58.1283   48.0066 C   0  0  0  0  0  0  0  0  0  0  0  0
   58.5925   59.5099   47.9625 C   0  0  0  0  0  0  0  0  0  0  0  0
   59.1639   60.1797   46.8969 C   0  0  0  0  0  0  0  0  0  0  0  0
   59.7640   59.4684   45.8747 C   0  0  0  0  0  0  0  0  0  0  0  0
   59.7983   58.0863   45.9216 C   0  0  0  0  0  0  0  0  0  0  0  0
   60.5522   57.1924   44.6385 Cl  0  0  0  0  0  0  0  0  0  0  0  0
   53.0192   51.1549   43.6304 H   0  0  0  0  0  0  0  0  0  0  0  0
   53.3128   50.0056   44.9576 H   0  0  0  0  0  0  0  0  0  0  0  0
   53.2778   51.7547   45.2862 H   0  0  0  0  0  0  0  0  0  0  0  0
   57.2752   47.1011   42.5460 H   0  0  0  0  0  0  0  0  0  0  0  0
   55.9847   47.7941   43.5574 H   0  0  0  0  0  0  0  0  0  0  0  0
   56.3200   48.4795   41.9492 H   0  0  0  0  0  0  0  0  0  0  0  0
   57.7382   54.0787   43.4893 H   0  0  0  0  0  0  0  0  0  0  0  0
   58.9335   55.6300   44.7650 H   0  0  0  0  0  0  0  0  0  0  0  0
   58.1734   57.6055   48.8391 H   0  0  0  0  0  0  0  0  0  0  0  0
   58.1235   60.0661   48.7606 H   0  0  0  0  0  0  0  0  0  0  0  0
   59.1413   61.2589   46.8629 H   0  0  0  0  0  0  0  0  0  0  0  0
   60.2098   59.9918   45.0419 H   0  0  0  0  0  0  0  0  0  0  0  0
  1  2  1  0  0  0  0
  2  3  2  0  0  0  0
  3  4  1  0  0  0  0
  4  5  2  0  0  0  0
  5  6  1  0  0  0  0
  6  7  2  0  0  0  0
  2  7  1  0  0  0  0
  6  8  1  0  0  0  0
  8  9  1  0  0  0  0
  4 10  1  0  0  0  0
 10 11  1  0  0  0  0
 11 12  2  0  0  0  0
 11 13  1  0  0  0  0
 13 14  1  0  0  0  0
 14 15  2  0  0  0  0
 14 16  2  0  0  0  0
 14 17  1  0  0  0  0
 17 18  2  0  0  0  0
 18 19  1  0  0  0  0
 19 20  2  0  0  0  0
 20 21  1  0  0  0  0
 21 22  2  0  0  0  0
 17 22  1  0  0  0  0
 22 23  1  0  0  0  0
  1 24  1  0  0  0  0
  1 25  1  0  0  0  0
  1 26  1  0  0  0  0
  9 27  1  0  0  0  0
  9 28  1  0  0  0  0
  9 29  1  0  0  0  0
 10 30  1  0  0  0  0
 13 31  1  0  0  0  0
 18 32  1  0  0  0  0
 19 33  1  0  0  0  0
 20 34  1  0  0  0  0
 21 35  1  0  0  0  0
M  END
> <Gold.Version>
2021.2.0

> <Gold.Id.Protein>
1YHZ|1YHZ_protein|mol2

> <Gold.PLP.Fitness>
41.0916

> <Gold.PLP.PLP>
-42.7854

> <Gold.PLP.part.hbond>
-1.0000

> <Gold.PLP.part.metal>
0.0000

> <Gold.PLP.part.buried>
-5.6109

> <Gold.PLP.part.nonpolar>
-35.8870

> <Gold.PLP.part.repulsive>
0.0674

> <Gold.PLP.ligand.clash>
0.0000

> <Gold.PLP.ligand.torsion>
2.8059

> <Gold.PLP.Chemscore.Hbond>
0.2096

> <Gold.PLP.Chemscore.CHOScore>
0.0000

> <Gold.PLP.Chemscore.Metal>
0.0000

> <Gold.Chemscore.Hbonds>
donor molecule, donor type, donor heavy atom, donor atom, acceptor molecule, acceptor atom, score
      P1  H  2206  5009       L1    15  0.21

> <Gold.PLP.Chemscore.Internal.Correction>
3.2893

> <Gold.Protein.RotatedTorsions>
[ 6671 1667 1666 1664 ] final  -33.40 input   60.00 | X-H torsion
[ 6844 1845 1844 1841 ] final   67.79 input   60.00 | X-H torsion
[ 5051 2219 2218 2215 ] final -142.95 input   60.00 | X-H torsion
[ 5018 2233 2232 2231 ] final   54.64 input   59.99 | X-H torsion
[ 5515 4319 4318 4315 ] final -137.07 input   60.00 | X-H torsion
[ 5604 4440 4439 4437 ] final  -77.98 input   60.00 | X-H torsion
[ 5608 4442 4441 4439 ] final   49.26 input   60.00 | X-H torsion
[ 5645 4474 4473 4472 ] final -133.63 input   60.00 | X-H torsion
[ 5630 4476 4475 4473 ] final  -68.09 input   60.00 | X-H torsion
[ 5635 4478 4477 4475 ] final   72.73 input   60.00 | X-H torsion

> <Gold.Protein.ActiveResidues>
 TYR305  THR331  LEU332  MET333  LEU349  GLY350  MET351  HIS352  GLY353  ASN358 
 VAL372  ARG373  PHE374  ASP375  ASP376  ARG377  VAL378  THR379  GLY380  LYS381 
 LEU382  PHE385  LYS403  ASN404  MET490  GLY508  GLY509  TRP574  ILE651  PRO652 
 SER653  GLY654  GLY655  FAD701 

> <Gold.Protein.RotatedAtoms>
   42.4671   53.4046   59.2298 H   0  0  0  0  0  0  0  0  0  0  0  0  # atno 5018 bound_to 2233
   41.2258   53.7631   58.1916 H   0  0  0  0  0  0  0  0  0  0  0  0  # atno 5019 bound_to 2233
   42.6120   53.0609   57.6149 H   0  0  0  0  0  0  0  0  0  0  0  0  # atno 5020 bound_to 2233
   50.4514   62.4351   55.9582 H   0  0  0  0  0  0  0  0  0  0  0  0  # atno 5051 bound_to 2219
   51.0283   54.7039   49.6665 H   0  0  0  0  0  0  0  0  0  0  0  0  # atno 5515 bound_to 4319
   54.9577   72.9766   53.7155 H   0  0  0  0  0  0  0  0  0  0  0  0  # atno 5604 bound_to 4440
   55.6415   76.4043   53.1853 H   0  0  0  0  0  0  0  0  0  0  0  0  # atno 5608 bound_to 4442
   61.1060   65.2039   51.1707 H   0  0  0  0  0  0  0  0  0  0  0  0  # atno 5630 bound_to 4476
   59.2789   63.5308   54.3711 H   0  0  0  0  0  0  0  0  0  0  0  0  # atno 5635 bound_to 4478
   58.5745   63.5975   49.9891 H   0  0  0  0  0  0  0  0  0  0  0  0  # atno 5645 bound_to 4474
   56.0194   66.5140   58.0453 H   0  0  0  0  0  0  0  0  0  0  0  0  # atno 6671 bound_to 1667
   62.3028   66.6876   56.4286 H   0  0  0  0  0  0  0  0  0  0  0  0  # atno 6844 bound_to 1845
   54.5050   66.9505   58.4504 LP  0  0  0  0  0  0  0  0  0  0  0  0  # atno 8952 bound_to 1667
   54.9649   65.3876   58.5624 LP  0  0  0  0  0  0  0  0  0  0  0  0  # atno 8953 bound_to 1667
   62.0809   67.3681   57.8901 LP  0  0  0  0  0  0  0  0  0  0  0  0  # atno 8956 bound_to 1845
   60.9867   67.6051   56.7013 LP  0  0  0  0  0  0  0  0  0  0  0  0  # atno 8957 bound_to 1845
   49.7824   61.0036   56.3469 LP  0  0  0  0  0  0  0  0  0  0  0  0  # atno 9001 bound_to 2219
   51.3601   61.0854   55.9335 LP  0  0  0  0  0  0  0  0  0  0  0  0  # atno 9002 bound_to 2219
   52.2908   55.5700   50.2180 LP  0  0  0  0  0  0  0  0  0  0  0  0  # atno 9031 bound_to 4319
   51.0408   55.2213   51.2093 LP  0  0  0  0  0  0  0  0  0  0  0  0  # atno 9032 bound_to 4319
   54.7633   74.5794   53.5128 LP  0  0  0  0  0  0  0  0  0  0  0  0  # atno 9039 bound_to 4440
   55.1578   73.9810   54.9801 LP  0  0  0  0  0  0  0  0  0  0  0  0  # atno 9040 bound_to 4440
   56.6921   76.2095   51.9580 LP  0  0  0  0  0  0  0  0  0  0  0  0  # atno 9041 bound_to 4442
   57.0299   77.2529   53.1679 LP  0  0  0  0  0  0  0  0  0  0  0  0  # atno 9042 bound_to 4442
   58.4308   62.0310   50.4054 LP  0  0  0  0  0  0  0  0  0  0  0  0  # atno 9052 bound_to 4474
   59.8323   62.5869   49.7783 LP  0  0  0  0  0  0  0  0  0  0  0  0  # atno 9053 bound_to 4474
   59.9497   66.2941   50.8208 LP  0  0  0  0  0  0  0  0  0  0  0  0  # atno 9054 bound_to 4476
   60.0617   64.9127   49.9571 LP  0  0  0  0  0  0  0  0  0  0  0  0  # atno 9055 bound_to 4476
   57.8956   64.3049   54.0034 LP  0  0  0  0  0  0  0  0  0  0  0  0  # atno 9056 bound_to 4478
   58.8814   64.8952   55.1638 LP  0  0  0  0  0  0  0  0  0  0  0  0  # atno 9057 bound_to 4478

$$$$
