C12H12ClN5O4S|Chlorsulfuron|mol|1|dock11
  -GOLD-   23022 1373D 1   1.00000     0.00000
 
 35 36  0  0  0  0  0  0  0  0  1 V2000
   47.2918   57.8800   45.9109 C   0  0  0  0  0  0  0  0  0  0  0  0
   48.3479   57.3653   46.8549 C   0  0  0  0  0  0  0  0  0  0  0  0
   49.4081   58.1060   47.1250 N   0  0  0  0  0  0  0  0  0  0  0  0
   50.3417   57.6543   47.9578 C   0  0  0  0  0  0  0  0  0  0  0  0
   50.2068   56.4577   48.5174 N   0  0  0  0  0  0  0  0  0  0  0  0
   49.1406   55.7167   48.2435 C   0  0  0  0  0  0  0  0  0  0  0  0
   48.2087   56.1759   47.4149 N   0  0  0  0  0  0  0  0  0  0  0  0
   48.9999   54.4966   48.8114 O   0  0  0  0  0  0  0  0  0  0  0  0
   47.8906   54.5836   49.7079 C   0  0  0  0  0  0  0  0  0  0  0  0
   51.4535   58.4309   48.2406 N   0  0  0  0  0  0  0  0  0  0  0  0
   52.2052   58.9226   47.2358 C   0  0  0  0  0  0  0  0  0  0  0  0
   51.9078   58.6845   46.0814 O   0  0  0  0  0  0  0  0  0  0  0  0
   53.2869   59.6782   47.5109 N   0  0  0  0  0  0  0  0  0  0  0  0
   54.2819   60.1772   46.2847 S   0  0  0  0  0  0  0  0  0  0  0  0
   54.2462   59.1413   45.3127 O   0  0  0  0  0  0  0  0  0  0  0  0
   53.9504   61.5386   46.0484 O   0  0  0  0  0  0  0  0  0  0  0  0
   55.9279   60.1874   46.9132 C   0  0  0  0  0  0  0  0  0  0  0  0
   56.4366   61.3306   47.4998 C   0  0  0  0  0  0  0  0  0  0  0  0
   57.7282   61.3389   47.9929 C   0  0  0  0  0  0  0  0  0  0  0  0
   58.5117   60.2040   47.8990 C   0  0  0  0  0  0  0  0  0  0  0  0
   58.0042   59.0600   47.3121 C   0  0  0  0  0  0  0  0  0  0  0  0
   56.7097   59.0491   46.8244 C   0  0  0  0  0  0  0  0  0  0  0  0
   56.0714   57.6126   46.0876 Cl  0  0  0  0  0  0  0  0  0  0  0  0
   47.5364   57.5781   44.8925 H   0  0  0  0  0  0  0  0  0  0  0  0
   46.3226   57.4664   46.1896 H   0  0  0  0  0  0  0  0  0  0  0  0
   47.2527   58.9678   45.9678 H   0  0  0  0  0  0  0  0  0  0  0  0
   47.7378   53.6189   50.1917 H   0  0  0  0  0  0  0  0  0  0  0  0
   48.0935   55.3415   50.4646 H   0  0  0  0  0  0  0  0  0  0  0  0
   46.9942   54.8570   49.1513 H   0  0  0  0  0  0  0  0  0  0  0  0
   51.6909   58.6209   49.1617 H   0  0  0  0  0  0  0  0  0  0  0  0
   53.4825   59.9297   48.4270 H   0  0  0  0  0  0  0  0  0  0  0  0
   55.8251   62.2179   47.5728 H   0  0  0  0  0  0  0  0  0  0  0  0
   58.1254   62.2325   48.4513 H   0  0  0  0  0  0  0  0  0  0  0  0
   59.5207   60.2112   48.2842 H   0  0  0  0  0  0  0  0  0  0  0  0
   58.6166   58.1736   47.2381 H   0  0  0  0  0  0  0  0  0  0  0  0
  1  2  1  0  0  0  0
  2  3  2  0  0  0  0
  3  4  1  0  0  0  0
  4  5  2  0  0  0  0
  5  6  1  0  0  0  0
  6  7  2  0  0  0  0
  2  7  1  0  0  0  0
  6  8  1  0  0  0  0
  8  9  1  0  0  0  0
  4 10  1  0  0  0  0
 10 11  1  0  0  0  0
 11 12  2  0  0  0  0
 11 13  1  0  0  0  0
 13 14  1  0  0  0  0
 14 15  2  0  0  0  0
 14 16  2  0  0  0  0
 14 17  1  0  0  0  0
 17 18  2  0  0  0  0
 18 19  1  0  0  0  0
 19 20  2  0  0  0  0
 20 21  1  0  0  0  0
 21 22  2  0  0  0  0
 17 22  1  0  0  0  0
 22 23  1  0  0  0  0
  1 24  1  0  0  0  0
  1 25  1  0  0  0  0
  1 26  1  0  0  0  0
  9 27  1  0  0  0  0
  9 28  1  0  0  0  0
  9 29  1  0  0  0  0
 10 30  1  0  0  0  0
 13 31  1  0  0  0  0
 18 32  1  0  0  0  0
 19 33  1  0  0  0  0
 20 34  1  0  0  0  0
 21 35  1  0  0  0  0
M  END
> <Gold.Version>
2021.2.0

> <Gold.Id.Protein>
1YHZ|1YHZ_protein|mol2

> <Gold.PLP.Fitness>
30.6892

> <Gold.PLP.PLP>
-25.4055

> <Gold.PLP.part.hbond>
-4.6625

> <Gold.PLP.part.metal>
0.0000

> <Gold.PLP.part.buried>
-3.5049

> <Gold.PLP.part.nonpolar>
-19.8304

> <Gold.PLP.part.repulsive>
0.5010

> <Gold.PLP.ligand.clash>
0.0000

> <Gold.PLP.ligand.torsion>
2.0960

> <Gold.PLP.Chemscore.Hbond>
2.0615

> <Gold.PLP.Chemscore.CHOScore>
0.0000

> <Gold.PLP.Chemscore.Metal>
0.0000

> <Gold.Chemscore.Hbonds>
donor molecule, donor type, donor heavy atom, donor atom, acceptor molecule, acceptor atom, score
      L1  H    10    30       P1  2195  1.00
      L1  H    13    31       P1  2195  0.39
      P1  H  4319  5515       L1     8  0.67

> <Gold.PLP.Chemscore.Internal.Correction>
3.2911

> <Gold.Protein.RotatedTorsions>
[ 6671 1667 1666 1664 ] final -173.30 input   60.00 | X-H torsion
[ 6844 1845 1844 1841 ] final -118.89 input   60.00 | X-H torsion
[ 5051 2219 2218 2215 ] final -174.93 input   60.00 | X-H torsion
[ 5018 2233 2232 2231 ] final   50.71 input   59.99 | X-H torsion
[ 5515 4319 4318 4315 ] final -114.52 input   60.00 | X-H torsion
[ 5604 4440 4439 4437 ] final   25.04 input   60.00 | X-H torsion
[ 5608 4442 4441 4439 ] final  -47.23 input   60.00 | X-H torsion
[ 5645 4474 4473 4472 ] final  131.22 input   60.00 | X-H torsion
[ 5630 4476 4475 4473 ] final -117.69 input   60.00 | X-H torsion
[ 5635 4478 4477 4475 ] final   45.91 input   60.00 | X-H torsion

> <Gold.Protein.ActiveResidues>
 TYR305  THR331  LEU332  MET333  LEU349  GLY350  MET351  HIS352  GLY353  ASN358 
 VAL372  ARG373  PHE374  ASP375  ASP376  ARG377  VAL378  THR379  GLY380  LYS381 
 LEU382  PHE385  LYS403  ASN404  MET490  GLY508  GLY509  TRP574  ILE651  PRO652 
 SER653  GLY654  GLY655  FAD701 

> <Gold.Protein.RotatedAtoms>
   42.5212   53.3768   59.2049 H   0  0  0  0  0  0  0  0  0  0  0  0  # atno 5018 bound_to 2233
   41.2221   53.7758   58.2559 H   0  0  0  0  0  0  0  0  0  0  0  0  # atno 5019 bound_to 2233
   42.5616   53.0759   57.5755 H   0  0  0  0  0  0  0  0  0  0  0  0  # atno 5020 bound_to 2233
   49.9845   62.2699   56.1023 H   0  0  0  0  0  0  0  0  0  0  0  0  # atno 5051 bound_to 2219
   50.7860   54.6623   49.9377 H   0  0  0  0  0  0  0  0  0  0  0  0  # atno 5515 bound_to 4319
   55.1822   73.7049   54.9673 H   0  0  0  0  0  0  0  0  0  0  0  0  # atno 5604 bound_to 4440
   56.3528   76.0507   52.0362 H   0  0  0  0  0  0  0  0  0  0  0  0  # atno 5608 bound_to 4442
   60.7992   65.9003   51.3652 H   0  0  0  0  0  0  0  0  0  0  0  0  # atno 5630 bound_to 4476
   58.9602   63.4547   54.0861 H   0  0  0  0  0  0  0  0  0  0  0  0  # atno 5635 bound_to 4478
   58.1785   62.3466   50.4231 H   0  0  0  0  0  0  0  0  0  0  0  0  # atno 5645 bound_to 4474
   54.3426   66.6865   58.5478 H   0  0  0  0  0  0  0  0  0  0  0  0  # atno 6671 bound_to 1667
   61.2088   67.7601   57.4997 H   0  0  0  0  0  0  0  0  0  0  0  0  # atno 6844 bound_to 1845
   55.2757   65.3556   58.4693 LP  0  0  0  0  0  0  0  0  0  0  0  0  # atno 8952 bound_to 1667
   55.8830   66.8087   58.0375 LP  0  0  0  0  0  0  0  0  0  0  0  0  # atno 8953 bound_to 1667
   61.5932   67.0105   56.1075 LP  0  0  0  0  0  0  0  0  0  0  0  0  # atno 8956 bound_to 1845
   62.5761   66.8827   57.4053 LP  0  0  0  0  0  0  0  0  0  0  0  0  # atno 8957 bound_to 1845
   50.1743   60.6658   56.2996 LP  0  0  0  0  0  0  0  0  0  0  0  0  # atno 9001 bound_to 2219
   51.4385   61.5896   55.8357 LP  0  0  0  0  0  0  0  0  0  0  0  0  # atno 9002 bound_to 2219
   52.2230   55.4242   49.8863 LP  0  0  0  0  0  0  0  0  0  0  0  0  # atno 9031 bound_to 4319
   51.3527   55.4090   51.2679 LP  0  0  0  0  0  0  0  0  0  0  0  0  # atno 9032 bound_to 4319
   54.8891   73.1092   53.4817 LP  0  0  0  0  0  0  0  0  0  0  0  0  # atno 9039 bound_to 4440
   54.8059   74.7177   53.7505 LP  0  0  0  0  0  0  0  0  0  0  0  0  # atno 9040 bound_to 4440
   57.2255   77.1557   52.8520 LP  0  0  0  0  0  0  0  0  0  0  0  0  # atno 9041 bound_to 4442
   55.7803   76.6628   53.4310 LP  0  0  0  0  0  0  0  0  0  0  0  0  # atno 9042 bound_to 4442
   59.7161   62.2197   49.9058 LP  0  0  0  0  0  0  0  0  0  0  0  0  # atno 9052 bound_to 4474
   58.9458   63.6581   49.8408 LP  0  0  0  0  0  0  0  0  0  0  0  0  # atno 9053 bound_to 4474
   59.6371   65.8764   50.2263 LP  0  0  0  0  0  0  0  0  0  0  0  0  # atno 9054 bound_to 4476
   60.6832   64.6292   50.3558 LP  0  0  0  0  0  0  0  0  0  0  0  0  # atno 9055 bound_to 4476
   57.8763   64.6552   54.2646 LP  0  0  0  0  0  0  0  0  0  0  0  0  # atno 9056 bound_to 4478
   59.2216   64.6216   55.1897 LP  0  0  0  0  0  0  0  0  0  0  0  0  # atno 9057 bound_to 4478

$$$$
