C12H12ClN5O4S|Chlorsulfuron|mol|1|dock1
  -GOLD-   23022 1363D 1   1.00000     0.00000
 
 35 36  0  0  0  0  0  0  0  0  1 V2000
   52.2859   51.7776   45.7543 C   0  0  0  0  0  0  0  0  0  0  0  0
   52.9558   53.0501   46.2050 C   0  0  0  0  0  0  0  0  0  0  0  0
   54.2312   53.2571   45.9287 N   0  0  0  0  0  0  0  0  0  0  0  0
   54.8250   54.3793   46.3253 C   0  0  0  0  0  0  0  0  0  0  0  0
   54.1343   55.2914   46.9993 N   0  0  0  0  0  0  0  0  0  0  0  0
   52.8536   55.0798   47.2748 C   0  0  0  0  0  0  0  0  0  0  0  0
   52.2647   53.9590   46.8711 N   0  0  0  0  0  0  0  0  0  0  0  0
   52.1467   56.0067   47.9618 O   0  0  0  0  0  0  0  0  0  0  0  0
   51.7952   57.0320   47.0305 C   0  0  0  0  0  0  0  0  0  0  0  0
   56.1624   54.5960   46.0359 N   0  0  0  0  0  0  0  0  0  0  0  0
   56.5730   55.8090   45.6158 C   0  0  0  0  0  0  0  0  0  0  0  0
   55.7698   56.7129   45.4906 O   0  0  0  0  0  0  0  0  0  0  0  0
   57.8740   56.0199   45.3342 N   0  0  0  0  0  0  0  0  0  0  0  0
   58.3592   57.4701   44.6987 S   0  0  0  0  0  0  0  0  0  0  0  0
   59.7411   57.3195   44.4040 O   0  0  0  0  0  0  0  0  0  0  0  0
   57.3541   57.8376   43.7639 O   0  0  0  0  0  0  0  0  0  0  0  0
   58.2727   58.6662   45.9896 C   0  0  0  0  0  0  0  0  0  0  0  0
   57.7704   59.9273   45.7307 C   0  0  0  0  0  0  0  0  0  0  0  0
   57.7024   60.8660   46.7434 C   0  0  0  0  0  0  0  0  0  0  0  0
   58.1373   60.5440   48.0153 C   0  0  0  0  0  0  0  0  0  0  0  0
   58.6404   59.2830   48.2754 C   0  0  0  0  0  0  0  0  0  0  0  0
   58.7025   58.3412   47.2640 C   0  0  0  0  0  0  0  0  0  0  0  0
   59.3337   56.7572   47.5901 Cl  0  0  0  0  0  0  0  0  0  0  0  0
   52.3893   51.0183   46.5294 H   0  0  0  0  0  0  0  0  0  0  0  0
   51.2284   51.9687   45.5717 H   0  0  0  0  0  0  0  0  0  0  0  0
   52.7554   51.4254   44.8358 H   0  0  0  0  0  0  0  0  0  0  0  0
   51.2213   57.8053   47.5410 H   0  0  0  0  0  0  0  0  0  0  0  0
   52.7018   57.4689   46.6119 H   0  0  0  0  0  0  0  0  0  0  0  0
   51.1944   56.6036   46.2282 H   0  0  0  0  0  0  0  0  0  0  0  0
   56.8033   53.8747   46.1357 H   0  0  0  0  0  0  0  0  0  0  0  0
   58.5262   55.3222   45.5039 H   0  0  0  0  0  0  0  0  0  0  0  0
   57.4311   60.1798   44.7369 H   0  0  0  0  0  0  0  0  0  0  0  0
   57.3098   61.8515   46.5406 H   0  0  0  0  0  0  0  0  0  0  0  0
   58.0843   61.2778   48.8060 H   0  0  0  0  0  0  0  0  0  0  0  0
   58.9808   59.0317   49.2690 H   0  0  0  0  0  0  0  0  0  0  0  0
  1  2  1  0  0  0  0
  2  3  2  0  0  0  0
  3  4  1  0  0  0  0
  4  5  2  0  0  0  0
  5  6  1  0  0  0  0
  6  7  2  0  0  0  0
  2  7  1  0  0  0  0
  6  8  1  0  0  0  0
  8  9  1  0  0  0  0
  4 10  1  0  0  0  0
 10 11  1  0  0  0  0
 11 12  2  0  0  0  0
 11 13  1  0  0  0  0
 13 14  1  0  0  0  0
 14 15  2  0  0  0  0
 14 16  2  0  0  0  0
 14 17  1  0  0  0  0
 17 18  2  0  0  0  0
 18 19  1  0  0  0  0
 19 20  2  0  0  0  0
 20 21  1  0  0  0  0
 21 22  2  0  0  0  0
 17 22  1  0  0  0  0
 22 23  1  0  0  0  0
  1 24  1  0  0  0  0
  1 25  1  0  0  0  0
  1 26  1  0  0  0  0
  9 27  1  0  0  0  0
  9 28  1  0  0  0  0
  9 29  1  0  0  0  0
 10 30  1  0  0  0  0
 13 31  1  0  0  0  0
 18 32  1  0  0  0  0
 19 33  1  0  0  0  0
 20 34  1  0  0  0  0
 21 35  1  0  0  0  0
M  END
> <Gold.Version>
2021.2.0

> <Gold.Id.Protein>
1YHZ|1YHZ_protein|mol2

> <Gold.PLP.Fitness>
39.0065

> <Gold.PLP.PLP>
-32.3113

> <Gold.PLP.part.hbond>
-3.2079

> <Gold.PLP.part.metal>
0.0000

> <Gold.PLP.part.buried>
-4.4700

> <Gold.PLP.part.nonpolar>
-26.2393

> <Gold.PLP.part.repulsive>
0.1361

> <Gold.PLP.ligand.clash>
0.0000

> <Gold.PLP.ligand.torsion>
2.2500

> <Gold.PLP.Chemscore.Hbond>
2.6224

> <Gold.PLP.Chemscore.CHOScore>
0.0000

> <Gold.PLP.Chemscore.Metal>
0.0000

> <Gold.Chemscore.Hbonds>
donor molecule, donor type, donor heavy atom, donor atom, acceptor molecule, acceptor atom, score
      P1  H  2205  5011       L1     8  1.00
      P1  H  2206  5008       L1     5  0.62
      P1  H  4319  5515       L1     8  1.00

> <Gold.PLP.Chemscore.Internal.Correction>
3.3279

> <Gold.Protein.RotatedTorsions>
[ 6671 1667 1666 1664 ] final  118.67 input   60.00 | X-H torsion
[ 6844 1845 1844 1841 ] final  -58.91 input   60.00 | X-H torsion
[ 5051 2219 2218 2215 ] final -163.05 input   60.00 | X-H torsion
[ 5018 2233 2232 2231 ] final -161.05 input   59.99 | X-H torsion
[ 5515 4319 4318 4315 ] final  175.44 input   60.00 | X-H torsion
[ 5604 4440 4439 4437 ] final  133.42 input   60.00 | X-H torsion
[ 5608 4442 4441 4439 ] final    3.65 input   60.00 | X-H torsion
[ 5645 4474 4473 4472 ] final   64.97 input   60.00 | X-H torsion
[ 5630 4476 4475 4473 ] final   14.99 input   60.00 | X-H torsion
[ 5635 4478 4477 4475 ] final  146.69 input   60.00 | X-H torsion

> <Gold.Protein.ActiveResidues>
 TYR305  THR331  LEU332  MET333  LEU349  GLY350  MET351  HIS352  GLY353  ASN358 
 VAL372  ARG373  PHE374  ASP375  ASP376  ARG377  VAL378  THR379  GLY380  LYS381 
 LEU382  PHE385  LYS403  ASN404  MET490  GLY508  GLY509  TRP574  ILE651  PRO652 
 SER653  GLY654  GLY655  FAD701 

> <Gold.Protein.RotatedAtoms>
   41.3379   53.6500   57.8215 H   0  0  0  0  0  0  0  0  0  0  0  0  # atno 5018 bound_to 2233
   42.8618   53.0065   57.9266 H   0  0  0  0  0  0  0  0  0  0  0  0  # atno 5019 bound_to 2233
   42.1052   53.5720   59.2886 H   0  0  0  0  0  0  0  0  0  0  0  0  # atno 5020 bound_to 2233
   50.1454   62.3626   56.0471 H   0  0  0  0  0  0  0  0  0  0  0  0  # atno 5051 bound_to 2219
   51.6944   55.0001   49.4736 H   0  0  0  0  0  0  0  0  0  0  0  0  # atno 5515 bound_to 4319
   54.8462   74.7626   53.9310 H   0  0  0  0  0  0  0  0  0  0  0  0  # atno 5604 bound_to 4440
   55.7470   76.0418   52.5654 H   0  0  0  0  0  0  0  0  0  0  0  0  # atno 5608 bound_to 4442
   60.5252   64.6508   50.2227 H   0  0  0  0  0  0  0  0  0  0  0  0  # atno 5630 bound_to 4476
   59.3940   64.3713   55.1119 H   0  0  0  0  0  0  0  0  0  0  0  0  # atno 5635 bound_to 4478
   59.0408   61.8273   50.2397 H   0  0  0  0  0  0  0  0  0  0  0  0  # atno 5645 bound_to 4474
   54.5347   65.6627   58.6557 H   0  0  0  0  0  0  0  0  0  0  0  0  # atno 6671 bound_to 1667
   61.9875   67.4256   57.8972 H   0  0  0  0  0  0  0  0  0  0  0  0  # atno 6844 bound_to 1845
   56.0345   66.0009   58.1227 LP  0  0  0  0  0  0  0  0  0  0  0  0  # atno 8952 bound_to 1667
   54.9306   67.1945   58.2754 LP  0  0  0  0  0  0  0  0  0  0  0  0  # atno 8953 bound_to 1667
   61.0075   67.5565   56.6047 LP  0  0  0  0  0  0  0  0  0  0  0  0  # atno 8956 bound_to 1845
   62.3777   66.6735   56.5079 LP  0  0  0  0  0  0  0  0  0  0  0  0  # atno 8957 bound_to 1845
   50.0086   60.7653   56.3263 LP  0  0  0  0  0  0  0  0  0  0  0  0  # atno 9001 bound_to 2219
   51.4421   61.3967   55.8646 LP  0  0  0  0  0  0  0  0  0  0  0  0  # atno 9002 bound_to 2219
   52.0257   55.6592   50.9240 LP  0  0  0  0  0  0  0  0  0  0  0  0  # atno 9031 bound_to 4319
   50.6351   54.8337   50.6976 LP  0  0  0  0  0  0  0  0  0  0  0  0  # atno 9032 bound_to 4319
   55.1866   73.5196   54.9244 LP  0  0  0  0  0  0  0  0  0  0  0  0  # atno 9039 bound_to 4440
   54.8468   73.2421   53.3515 LP  0  0  0  0  0  0  0  0  0  0  0  0  # atno 9040 bound_to 4440
   57.1957   76.6836   52.1944 LP  0  0  0  0  0  0  0  0  0  0  0  0  # atno 9041 bound_to 4442
   56.4201   77.1438   53.5557 LP  0  0  0  0  0  0  0  0  0  0  0  0  # atno 9042 bound_to 4442
   59.6641   63.2255   49.6880 LP  0  0  0  0  0  0  0  0  0  0  0  0  # atno 9052 bound_to 4474
   58.1293   63.1753   50.2434 LP  0  0  0  0  0  0  0  0  0  0  0  0  # atno 9053 bound_to 4474
   60.9259   65.7357   51.3675 LP  0  0  0  0  0  0  0  0  0  0  0  0  # atno 9054 bound_to 4476
   59.6704   66.0282   50.3651 LP  0  0  0  0  0  0  0  0  0  0  0  0  # atno 9055 bound_to 4476
   58.6901   63.4984   53.9327 LP  0  0  0  0  0  0  0  0  0  0  0  0  # atno 9056 bound_to 4478
   57.9710   64.8552   54.4884 LP  0  0  0  0  0  0  0  0  0  0  0  0  # atno 9057 bound_to 4478

$$$$
