C12H12ClN5O4S|Chlorsulfuron|mol|1|dock5
  -GOLD-   23022 1373D 1   1.00000     0.00000
 
 35 36  0  0  0  0  0  0  0  0  1 V2000
   48.8090   57.7230   45.0282 C   0  0  0  0  0  0  0  0  0  0  0  0
   49.9979   57.5235   45.9327 C   0  0  0  0  0  0  0  0  0  0  0  0
   50.6564   58.5709   46.3964 N   0  0  0  0  0  0  0  0  0  0  0  0
   51.7060   58.3978   47.1949 C   0  0  0  0  0  0  0  0  0  0  0  0
   52.0913   57.1708   47.5253 N   0  0  0  0  0  0  0  0  0  0  0  0
   51.4274   56.1214   47.0575 C   0  0  0  0  0  0  0  0  0  0  0  0
   50.3762   56.3012   46.2646 N   0  0  0  0  0  0  0  0  0  0  0  0
   51.8174   54.8696   47.3917 O   0  0  0  0  0  0  0  0  0  0  0  0
   53.1819   54.7403   46.9875 C   0  0  0  0  0  0  0  0  0  0  0  0
   52.3965   59.4962   47.6806 N   0  0  0  0  0  0  0  0  0  0  0  0
   53.4352   60.0006   46.9855 C   0  0  0  0  0  0  0  0  0  0  0  0
   53.7661   59.4917   45.9322 O   0  0  0  0  0  0  0  0  0  0  0  0
   54.1071   61.0691   47.4580 N   0  0  0  0  0  0  0  0  0  0  0  0
   55.4592   61.6115   46.6707 S   0  0  0  0  0  0  0  0  0  0  0  0
   55.1944   61.4395   45.2853 O   0  0  0  0  0  0  0  0  0  0  0  0
   55.8033   62.8403   47.2960 O   0  0  0  0  0  0  0  0  0  0  0  0
   56.7714   60.4981   47.0491 C   0  0  0  0  0  0  0  0  0  0  0  0
   57.5721   60.7231   48.1526 C   0  0  0  0  0  0  0  0  0  0  0  0
   58.6019   59.8496   48.4496 C   0  0  0  0  0  0  0  0  0  0  0  0
   58.8313   58.7511   47.6428 C   0  0  0  0  0  0  0  0  0  0  0  0
   58.0313   58.5251   46.5383 C   0  0  0  0  0  0  0  0  0  0  0  0
   56.9967   59.3952   46.2444 C   0  0  0  0  0  0  0  0  0  0  0  0
   55.9912   59.1118   44.8579 Cl  0  0  0  0  0  0  0  0  0  0  0  0
   49.1415   57.7448   43.9904 H   0  0  0  0  0  0  0  0  0  0  0  0
   48.1051   56.9023   45.1670 H   0  0  0  0  0  0  0  0  0  0  0  0
   48.3204   58.6661   45.2730 H   0  0  0  0  0  0  0  0  0  0  0  0
   53.5419   53.7424   47.2376 H   0  0  0  0  0  0  0  0  0  0  0  0
   53.2582   54.8951   45.9112 H   0  0  0  0  0  0  0  0  0  0  0  0
   53.7863   55.4851   47.5053 H   0  0  0  0  0  0  0  0  0  0  0  0
   52.1325   59.9022   48.5211 H   0  0  0  0  0  0  0  0  0  0  0  0
   53.7986   61.5204   48.2593 H   0  0  0  0  0  0  0  0  0  0  0  0
   57.3938   61.5818   48.7830 H   0  0  0  0  0  0  0  0  0  0  0  0
   59.2274   60.0259   49.3121 H   0  0  0  0  0  0  0  0  0  0  0  0
   59.6360   58.0692   47.8751 H   0  0  0  0  0  0  0  0  0  0  0  0
   58.2111   57.6672   45.9075 H   0  0  0  0  0  0  0  0  0  0  0  0
  1  2  1  0  0  0  0
  2  3  2  0  0  0  0
  3  4  1  0  0  0  0
  4  5  2  0  0  0  0
  5  6  1  0  0  0  0
  6  7  2  0  0  0  0
  2  7  1  0  0  0  0
  6  8  1  0  0  0  0
  8  9  1  0  0  0  0
  4 10  1  0  0  0  0
 10 11  1  0  0  0  0
 11 12  2  0  0  0  0
 11 13  1  0  0  0  0
 13 14  1  0  0  0  0
 14 15  2  0  0  0  0
 14 16  2  0  0  0  0
 14 17  1  0  0  0  0
 17 18  2  0  0  0  0
 18 19  1  0  0  0  0
 19 20  2  0  0  0  0
 20 21  1  0  0  0  0
 21 22  2  0  0  0  0
 17 22  1  0  0  0  0
 22 23  1  0  0  0  0
  1 24  1  0  0  0  0
  1 25  1  0  0  0  0
  1 26  1  0  0  0  0
  9 27  1  0  0  0  0
  9 28  1  0  0  0  0
  9 29  1  0  0  0  0
 10 30  1  0  0  0  0
 13 31  1  0  0  0  0
 18 32  1  0  0  0  0
 19 33  1  0  0  0  0
 20 34  1  0  0  0  0
 21 35  1  0  0  0  0
M  END
> <Gold.Version>
2021.2.0

> <Gold.Id.Protein>
1YHZ|1YHZ_protein|mol2

> <Gold.PLP.Fitness>
34.4029

> <Gold.PLP.PLP>
-27.5613

> <Gold.PLP.part.hbond>
-4.9577

> <Gold.PLP.part.metal>
0.0000

> <Gold.PLP.part.buried>
-4.3352

> <Gold.PLP.part.nonpolar>
-19.9946

> <Gold.PLP.part.repulsive>
0.4828

> <Gold.PLP.ligand.clash>
0.1147

> <Gold.PLP.ligand.torsion>
2.2259

> <Gold.PLP.Chemscore.Hbond>
2.7056

> <Gold.PLP.Chemscore.CHOScore>
0.0000

> <Gold.PLP.Chemscore.Metal>
0.0000

> <Gold.Chemscore.Hbonds>
donor molecule, donor type, donor heavy atom, donor atom, acceptor molecule, acceptor atom, score
      L1  H    13    31       P1  2194  1.00
      P1  H  2205  5011       L1     5  0.71
      P1  H  4319  5515       L1     8  1.00

> <Gold.PLP.Chemscore.Internal.Correction>
3.2911

> <Gold.Protein.RotatedTorsions>
[ 6671 1667 1666 1664 ] final  -74.61 input   60.00 | X-H torsion
[ 6844 1845 1844 1841 ] final   47.13 input   60.00 | X-H torsion
[ 5051 2219 2218 2215 ] final   43.36 input   60.00 | X-H torsion
[ 5018 2233 2232 2231 ] final  163.07 input   59.99 | X-H torsion
[ 5515 4319 4318 4315 ] final  172.57 input   60.00 | X-H torsion
[ 5604 4440 4439 4437 ] final  116.44 input   60.00 | X-H torsion
[ 5608 4442 4441 4439 ] final   67.83 input   60.00 | X-H torsion
[ 5645 4474 4473 4472 ] final  150.22 input   60.00 | X-H torsion
[ 5630 4476 4475 4473 ] final  -68.80 input   60.00 | X-H torsion
[ 5635 4478 4477 4475 ] final  164.03 input   60.00 | X-H torsion

> <Gold.Protein.ActiveResidues>
 TYR305  THR331  LEU332  MET333  LEU349  GLY350  MET351  HIS352  GLY353  ASN358 
 VAL372  ARG373  PHE374  ASP375  ASP376  ARG377  VAL378  THR379  GLY380  LYS381 
 LEU382  PHE385  LYS403  ASN404  MET490  GLY508  GLY509  TRP574  ILE651  PRO652 
 SER653  GLY654  GLY655  FAD701 

> <Gold.Protein.RotatedAtoms>
   41.2269   53.7957   58.3818 H   0  0  0  0  0  0  0  0  0  0  0  0  # atno 5018 bound_to 2233
   42.4580   53.1094   57.5096 H   0  0  0  0  0  0  0  0  0  0  0  0  # atno 5019 bound_to 2233
   42.6201   53.3235   59.1452 H   0  0  0  0  0  0  0  0  0  0  0  0  # atno 5020 bound_to 2233
   50.5118   60.5862   56.2286 H   0  0  0  0  0  0  0  0  0  0  0  0  # atno 5051 bound_to 2219
   51.7339   55.0240   49.4812 H   0  0  0  0  0  0  0  0  0  0  0  0  # atno 5515 bound_to 4319
   54.9081   74.7690   54.2004 H   0  0  0  0  0  0  0  0  0  0  0  0  # atno 5604 bound_to 4440
   55.7454   76.6060   53.3847 H   0  0  0  0  0  0  0  0  0  0  0  0  # atno 5608 bound_to 4442
   61.1052   65.2137   51.1767 H   0  0  0  0  0  0  0  0  0  0  0  0  # atno 5630 bound_to 4476
   59.2390   64.5973   55.1796 H   0  0  0  0  0  0  0  0  0  0  0  0  # atno 5635 bound_to 4478
   58.0765   62.6366   50.3912 H   0  0  0  0  0  0  0  0  0  0  0  0  # atno 5645 bound_to 4474
   55.6341   67.0476   58.0793 H   0  0  0  0  0  0  0  0  0  0  0  0  # atno 6671 bound_to 1667
   62.4912   66.6738   56.7062 H   0  0  0  0  0  0  0  0  0  0  0  0  # atno 6844 bound_to 1845
   54.2653   66.3565   58.6242 LP  0  0  0  0  0  0  0  0  0  0  0  0  # atno 8952 bound_to 1667
   55.5926   65.4442   58.3544 LP  0  0  0  0  0  0  0  0  0  0  0  0  # atno 8953 bound_to 1667
   61.7932   67.5458   57.8897 LP  0  0  0  0  0  0  0  0  0  0  0  0  # atno 8956 bound_to 1845
   61.0847   67.4413   56.4222 LP  0  0  0  0  0  0  0  0  0  0  0  0  # atno 8957 bound_to 1845
   51.3326   61.9277   55.8104 LP  0  0  0  0  0  0  0  0  0  0  0  0  # atno 9001 bound_to 2219
   49.7491   62.0234   56.1977 LP  0  0  0  0  0  0  0  0  0  0  0  0  # atno 9002 bound_to 2219
   51.9944   55.6538   50.9589 LP  0  0  0  0  0  0  0  0  0  0  0  0  # atno 9031 bound_to 4319
   50.6266   54.8151   50.6551 LP  0  0  0  0  0  0  0  0  0  0  0  0  # atno 9032 bound_to 4319
   55.1773   73.2762   54.7895 LP  0  0  0  0  0  0  0  0  0  0  0  0  # atno 9039 bound_to 4440
   54.7938   73.4790   53.2152 LP  0  0  0  0  0  0  0  0  0  0  0  0  # atno 9040 bound_to 4440
   56.4232   76.0751   52.0038 LP  0  0  0  0  0  0  0  0  0  0  0  0  # atno 9041 bound_to 4442
   57.1942   77.1842   52.9213 LP  0  0  0  0  0  0  0  0  0  0  0  0  # atno 9042 bound_to 4442
   59.5287   62.0009   50.0236 LP  0  0  0  0  0  0  0  0  0  0  0  0  # atno 9052 bound_to 4474
   59.2360   63.5848   49.7552 LP  0  0  0  0  0  0  0  0  0  0  0  0  # atno 9053 bound_to 4474
   59.9422   66.2920   50.8122 LP  0  0  0  0  0  0  0  0  0  0  0  0  # atno 9054 bound_to 4476
   60.0700   64.9050   49.9597 LP  0  0  0  0  0  0  0  0  0  0  0  0  # atno 9055 bound_to 4476
   58.9355   63.4489   54.0674 LP  0  0  0  0  0  0  0  0  0  0  0  0  # atno 9056 bound_to 4478
   57.8817   64.6771   54.2856 LP  0  0  0  0  0  0  0  0  0  0  0  0  # atno 9057 bound_to 4478

$$$$
