C12H12ClN5O4S|Chlorsulfuron|mol|1|dock4
  -GOLD-   23022 1373D 1   1.00000     0.00000
 
 35 36  0  0  0  0  0  0  0  0  1 V2000
   53.0710   52.3283   44.2499 C   0  0  0  0  0  0  0  0  0  0  0  0
   53.6621   53.2139   45.3165 C   0  0  0  0  0  0  0  0  0  0  0  0
   54.9712   53.2508   45.4918 N   0  0  0  0  0  0  0  0  0  0  0  0
   55.4955   54.0315   46.4324 C   0  0  0  0  0  0  0  0  0  0  0  0
   54.7016   54.7739   47.1951 N   0  0  0  0  0  0  0  0  0  0  0  0
   53.3873   54.7341   47.0160 C   0  0  0  0  0  0  0  0  0  0  0  0
   52.8700   53.9561   46.0710 N   0  0  0  0  0  0  0  0  0  0  0  0
   52.5751   55.4887   47.7916 O   0  0  0  0  0  0  0  0  0  0  0  0
   51.7210   56.2182   46.9081 C   0  0  0  0  0  0  0  0  0  0  0  0
   56.8681   54.0697   46.6163 N   0  0  0  0  0  0  0  0  0  0  0  0
   57.5941   55.0637   46.0674 C   0  0  0  0  0  0  0  0  0  0  0  0
   57.0446   55.9267   45.4108 O   0  0  0  0  0  0  0  0  0  0  0  0
   58.9295   55.1009   46.2462 N   0  0  0  0  0  0  0  0  0  0  0  0
   59.8373   56.2477   45.4697 S   0  0  0  0  0  0  0  0  0  0  0  0
   61.1883   55.9634   45.8058 O   0  0  0  0  0  0  0  0  0  0  0  0
   59.3165   56.3237   44.1497 O   0  0  0  0  0  0  0  0  0  0  0  0
   59.4748   57.8015   46.2173 C   0  0  0  0  0  0  0  0  0  0  0  0
   59.0225   57.8519   47.5221 C   0  0  0  0  0  0  0  0  0  0  0  0
   58.7380   59.0710   48.1089 C   0  0  0  0  0  0  0  0  0  0  0  0
   58.9053   60.2401   47.3907 C   0  0  0  0  0  0  0  0  0  0  0  0
   59.3572   60.1910   46.0853 C   0  0  0  0  0  0  0  0  0  0  0  0
   59.6483   58.9719   45.4998 C   0  0  0  0  0  0  0  0  0  0  0  0
   60.2164   58.9095   43.8606 Cl  0  0  0  0  0  0  0  0  0  0  0  0
   52.8596   51.3450   44.6701 H   0  0  0  0  0  0  0  0  0  0  0  0
   52.1465   52.7720   43.8805 H   0  0  0  0  0  0  0  0  0  0  0  0
   53.7796   52.2273   43.4278 H   0  0  0  0  0  0  0  0  0  0  0  0
   51.0449   56.8439   47.4907 H   0  0  0  0  0  0  0  0  0  0  0  0
   52.3259   56.8470   46.2549 H   0  0  0  0  0  0  0  0  0  0  0  0
   51.1408   55.5199   46.3049 H   0  0  0  0  0  0  0  0  0  0  0  0
   57.3066   53.3811   47.1402 H   0  0  0  0  0  0  0  0  0  0  0  0
   59.3587   54.4560   46.8299 H   0  0  0  0  0  0  0  0  0  0  0  0
   58.8910   56.9387   48.0836 H   0  0  0  0  0  0  0  0  0  0  0  0
   58.3845   59.1099   49.1287 H   0  0  0  0  0  0  0  0  0  0  0  0
   58.6826   61.1921   47.8496 H   0  0  0  0  0  0  0  0  0  0  0  0
   59.4871   61.1044   45.5240 H   0  0  0  0  0  0  0  0  0  0  0  0
  1  2  1  0  0  0  0
  2  3  2  0  0  0  0
  3  4  1  0  0  0  0
  4  5  2  0  0  0  0
  5  6  1  0  0  0  0
  6  7  2  0  0  0  0
  2  7  1  0  0  0  0
  6  8  1  0  0  0  0
  8  9  1  0  0  0  0
  4 10  1  0  0  0  0
 10 11  1  0  0  0  0
 11 12  2  0  0  0  0
 11 13  1  0  0  0  0
 13 14  1  0  0  0  0
 14 15  2  0  0  0  0
 14 16  2  0  0  0  0
 14 17  1  0  0  0  0
 17 18  2  0  0  0  0
 18 19  1  0  0  0  0
 19 20  2  0  0  0  0
 20 21  1  0  0  0  0
 21 22  2  0  0  0  0
 17 22  1  0  0  0  0
 22 23  1  0  0  0  0
  1 24  1  0  0  0  0
  1 25  1  0  0  0  0
  1 26  1  0  0  0  0
  9 27  1  0  0  0  0
  9 28  1  0  0  0  0
  9 29  1  0  0  0  0
 10 30  1  0  0  0  0
 13 31  1  0  0  0  0
 18 32  1  0  0  0  0
 19 33  1  0  0  0  0
 20 34  1  0  0  0  0
 21 35  1  0  0  0  0
M  END
> <Gold.Version>
2021.2.0

> <Gold.Id.Protein>
1YHZ|1YHZ_protein|mol2

> <Gold.PLP.Fitness>
44.3815

> <Gold.PLP.PLP>
-38.0380

> <Gold.PLP.part.hbond>
-3.0000

> <Gold.PLP.part.metal>
0.0000

> <Gold.PLP.part.buried>
-5.7340

> <Gold.PLP.part.nonpolar>
-30.6817

> <Gold.PLP.part.repulsive>
0.1314

> <Gold.PLP.ligand.clash>
0.0000

> <Gold.PLP.ligand.torsion>
2.5298

> <Gold.PLP.Chemscore.Hbond>
2.7040

> <Gold.PLP.Chemscore.CHOScore>
0.0000

> <Gold.PLP.Chemscore.Metal>
0.0000

> <Gold.Chemscore.Hbonds>
donor molecule, donor type, donor heavy atom, donor atom, acceptor molecule, acceptor atom, score
      P1  H  2205  5011       L1     8  1.00
      P1  H  2206  5008       L1     5  0.70
      P1  H  4319  5515       L1     8  1.00

> <Gold.PLP.Chemscore.Internal.Correction>
3.2911

> <Gold.Protein.RotatedTorsions>
[ 6671 1667 1666 1664 ] final    7.64 input   60.00 | X-H torsion
[ 6844 1845 1844 1841 ] final  135.39 input   60.00 | X-H torsion
[ 5051 2219 2218 2215 ] final  -61.31 input   60.00 | X-H torsion
[ 5018 2233 2232 2231 ] final   75.23 input   59.99 | X-H torsion
[ 5515 4319 4318 4315 ] final  157.23 input   60.00 | X-H torsion
[ 5604 4440 4439 4437 ] final  176.44 input   60.00 | X-H torsion
[ 5608 4442 4441 4439 ] final -147.62 input   60.00 | X-H torsion
[ 5645 4474 4473 4472 ] final -166.59 input   60.00 | X-H torsion
[ 5630 4476 4475 4473 ] final    4.03 input   60.00 | X-H torsion
[ 5635 4478 4477 4475 ] final  115.36 input   60.00 | X-H torsion

> <Gold.Protein.ActiveResidues>
 TYR305  THR331  LEU332  MET333  LEU349  GLY350  MET351  HIS352  GLY353  ASN358 
 VAL372  ARG373  PHE374  ASP375  ASP376  ARG377  VAL378  THR379  GLY380  LYS381 
 LEU382  PHE385  LYS403  ASN404  MET490  GLY508  GLY509  TRP574  ILE651  PRO652 
 SER653  GLY654  GLY655  FAD701 

> <Gold.Protein.RotatedAtoms>
   42.1623   53.5475   59.2904 H   0  0  0  0  0  0  0  0  0  0  0  0  # atno 5018 bound_to 2233
   41.3112   53.6707   57.8735 H   0  0  0  0  0  0  0  0  0  0  0  0  # atno 5019 bound_to 2233
   42.8314   53.0104   57.8724 H   0  0  0  0  0  0  0  0  0  0  0  0  # atno 5020 bound_to 2233
   51.4147   61.6913   55.8285 H   0  0  0  0  0  0  0  0  0  0  0  0  # atno 5051 bound_to 2219
   51.9315   55.1562   49.5587 H   0  0  0  0  0  0  0  0  0  0  0  0  # atno 5515 bound_to 4319
   54.7442   74.4071   53.3528 H   0  0  0  0  0  0  0  0  0  0  0  0  # atno 5604 bound_to 4440
   57.2865   77.0013   52.5784 H   0  0  0  0  0  0  0  0  0  0  0  0  # atno 5608 bound_to 4442
   60.6593   64.6338   50.3398 H   0  0  0  0  0  0  0  0  0  0  0  0  # atno 5630 bound_to 4476
   59.5053   63.9480   54.8586 H   0  0  0  0  0  0  0  0  0  0  0  0  # atno 5635 bound_to 4478
   58.1971   63.2863   50.1959 H   0  0  0  0  0  0  0  0  0  0  0  0  # atno 5645 bound_to 4474
   55.9827   65.8694   58.1632 H   0  0  0  0  0  0  0  0  0  0  0  0  # atno 6671 bound_to 1667
   61.4057   67.1413   56.1557 H   0  0  0  0  0  0  0  0  0  0  0  0  # atno 6844 bound_to 1845
   55.0689   67.2143   58.2284 LP  0  0  0  0  0  0  0  0  0  0  0  0  # atno 8952 bound_to 1667
   54.4380   65.7730   58.6657 LP  0  0  0  0  0  0  0  0  0  0  0  0  # atno 8953 bound_to 1667
   62.6070   66.7856   57.1943 LP  0  0  0  0  0  0  0  0  0  0  0  0  # atno 8956 bound_to 1845
   61.3640   67.7307   57.6720 LP  0  0  0  0  0  0  0  0  0  0  0  0  # atno 8957 bound_to 1845
   49.9024   62.2110   56.1298 LP  0  0  0  0  0  0  0  0  0  0  0  0  # atno 9001 bound_to 2219
   50.2700   60.6271   56.2812 LP  0  0  0  0  0  0  0  0  0  0  0  0  # atno 9002 bound_to 2219
   51.8057   55.6043   51.1180 LP  0  0  0  0  0  0  0  0  0  0  0  0  # atno 9031 bound_to 4319
   50.6163   54.7315   50.4179 LP  0  0  0  0  0  0  0  0  0  0  0  0  # atno 9032 bound_to 4319
   55.1239   74.2080   54.9225 LP  0  0  0  0  0  0  0  0  0  0  0  0  # atno 9039 bound_to 4440
   55.0122   72.9117   53.9357 LP  0  0  0  0  0  0  0  0  0  0  0  0  # atno 9040 bound_to 4440
   55.9887   76.8750   53.5521 LP  0  0  0  0  0  0  0  0  0  0  0  0  # atno 9041 bound_to 4442
   56.0769   75.9863   52.1849 LP  0  0  0  0  0  0  0  0  0  0  0  0  # atno 9042 bound_to 4442
   58.9096   61.8260   50.2839 LP  0  0  0  0  0  0  0  0  0  0  0  0  # atno 9052 bound_to 4474
   59.7336   63.1054   49.6916 LP  0  0  0  0  0  0  0  0  0  0  0  0  # atno 9053 bound_to 4474
   60.8217   65.8825   51.3705 LP  0  0  0  0  0  0  0  0  0  0  0  0  # atno 9054 bound_to 4476
   59.6395   65.8984   50.2441 LP  0  0  0  0  0  0  0  0  0  0  0  0  # atno 9055 bound_to 4476
   58.2611   63.7522   53.8284 LP  0  0  0  0  0  0  0  0  0  0  0  0  # atno 9056 bound_to 4478
   58.2878   65.0276   54.8478 LP  0  0  0  0  0  0  0  0  0  0  0  0  # atno 9057 bound_to 4478

$$$$
