C12H12ClN5O4S|Chlorsulfuron|mol|1|dock19
  -GOLD-   23022 1373D 1   1.00000     0.00000
 
 35 36  0  0  0  0  0  0  0  0  1 V2000
   53.0803   52.0897   44.4347 C   0  0  0  0  0  0  0  0  0  0  0  0
   53.7400   53.0296   45.4108 C   0  0  0  0  0  0  0  0  0  0  0  0
   55.0549   53.0295   45.5400 N   0  0  0  0  0  0  0  0  0  0  0  0
   55.6398   53.8580   46.4006 C   0  0  0  0  0  0  0  0  0  0  0  0
   54.9003   54.6854   47.1299 N   0  0  0  0  0  0  0  0  0  0  0  0
   53.5800   54.6826   46.9972 C   0  0  0  0  0  0  0  0  0  0  0  0
   53.0021   53.8562   46.1317 N   0  0  0  0  0  0  0  0  0  0  0  0
   52.8231   55.5239   47.7390 O   0  0  0  0  0  0  0  0  0  0  0  0
   51.9645   56.2166   46.8307 C   0  0  0  0  0  0  0  0  0  0  0  0
   57.0185   53.8574   46.5363 N   0  0  0  0  0  0  0  0  0  0  0  0
   57.7464   54.8697   46.0247 C   0  0  0  0  0  0  0  0  0  0  0  0
   57.1932   55.7834   45.4441 O   0  0  0  0  0  0  0  0  0  0  0  0
   59.0877   54.8691   46.1566 N   0  0  0  0  0  0  0  0  0  0  0  0
   59.9926   56.0449   45.4209 S   0  0  0  0  0  0  0  0  0  0  0  0
   61.3379   55.7919   45.8021 O   0  0  0  0  0  0  0  0  0  0  0  0
   59.5165   56.1187   44.0841 O   0  0  0  0  0  0  0  0  0  0  0  0
   59.5648   57.5828   46.1669 C   0  0  0  0  0  0  0  0  0  0  0  0
   58.9717   57.6043   47.4149 C   0  0  0  0  0  0  0  0  0  0  0  0
   58.6359   58.8109   48.0004 C   0  0  0  0  0  0  0  0  0  0  0  0
   58.8928   59.9964   47.3377 C   0  0  0  0  0  0  0  0  0  0  0  0
   59.4856   59.9762   46.0891 C   0  0  0  0  0  0  0  0  0  0  0  0
   59.8278   58.7695   45.5056 C   0  0  0  0  0  0  0  0  0  0  0  0
   60.5728   58.7434   43.9379 Cl  0  0  0  0  0  0  0  0  0  0  0  0
   52.8489   51.1496   44.9355 H   0  0  0  0  0  0  0  0  0  0  0  0
   52.1598   52.5394   44.0628 H   0  0  0  0  0  0  0  0  0  0  0  0
   53.7553   51.9002   43.6001 H   0  0  0  0  0  0  0  0  0  0  0  0
   51.3321   56.9097   47.3856 H   0  0  0  0  0  0  0  0  0  0  0  0
   52.5676   56.7709   46.1117 H   0  0  0  0  0  0  0  0  0  0  0  0
   51.3387   55.4974   46.3022 H   0  0  0  0  0  0  0  0  0  0  0  0
   57.4599   53.1283   46.9995 H   0  0  0  0  0  0  0  0  0  0  0  0
   59.5230   54.1801   46.6825 H   0  0  0  0  0  0  0  0  0  0  0  0
   58.7701   56.6782   47.9329 H   0  0  0  0  0  0  0  0  0  0  0  0
   58.1724   58.8272   48.9757 H   0  0  0  0  0  0  0  0  0  0  0  0
   58.6300   60.9387   47.7954 H   0  0  0  0  0  0  0  0  0  0  0  0
   59.6856   60.9025   45.5711 H   0  0  0  0  0  0  0  0  0  0  0  0
  1  2  1  0  0  0  0
  2  3  2  0  0  0  0
  3  4  1  0  0  0  0
  4  5  2  0  0  0  0
  5  6  1  0  0  0  0
  6  7  2  0  0  0  0
  2  7  1  0  0  0  0
  6  8  1  0  0  0  0
  8  9  1  0  0  0  0
  4 10  1  0  0  0  0
 10 11  1  0  0  0  0
 11 12  2  0  0  0  0
 11 13  1  0  0  0  0
 13 14  1  0  0  0  0
 14 15  2  0  0  0  0
 14 16  2  0  0  0  0
 14 17  1  0  0  0  0
 17 18  2  0  0  0  0
 18 19  1  0  0  0  0
 19 20  2  0  0  0  0
 20 21  1  0  0  0  0
 21 22  2  0  0  0  0
 17 22  1  0  0  0  0
 22 23  1  0  0  0  0
  1 24  1  0  0  0  0
  1 25  1  0  0  0  0
  1 26  1  0  0  0  0
  9 27  1  0  0  0  0
  9 28  1  0  0  0  0
  9 29  1  0  0  0  0
 10 30  1  0  0  0  0
 13 31  1  0  0  0  0
 18 32  1  0  0  0  0
 19 33  1  0  0  0  0
 20 34  1  0  0  0  0
 21 35  1  0  0  0  0
M  END
> <Gold.Version>
2021.2.0

> <Gold.Id.Protein>
1YHZ|1YHZ_protein|mol2

> <Gold.PLP.Fitness>
45.0005

> <Gold.PLP.PLP>
-38.8711

> <Gold.PLP.part.hbond>
-3.1643

> <Gold.PLP.part.metal>
0.0000

> <Gold.PLP.part.buried>
-5.4512

> <Gold.PLP.part.nonpolar>
-30.9982

> <Gold.PLP.part.repulsive>
0.1177

> <Gold.PLP.ligand.clash>
0.0000

> <Gold.PLP.ligand.torsion>
2.5160

> <Gold.PLP.Chemscore.Hbond>
2.6240

> <Gold.PLP.Chemscore.CHOScore>
0.0000

> <Gold.PLP.Chemscore.Metal>
0.0000

> <Gold.Chemscore.Hbonds>
donor molecule, donor type, donor heavy atom, donor atom, acceptor molecule, acceptor atom, score
      P1  H  2205  5011       L1     8  1.00
      P1  H  2206  5008       L1     5  0.62
      P1  H  4319  5515       L1     8  1.00

> <Gold.PLP.Chemscore.Internal.Correction>
3.2893

> <Gold.Protein.RotatedTorsions>
[ 6671 1667 1666 1664 ] final  113.79 input   60.00 | X-H torsion
[ 6844 1845 1844 1841 ] final   31.06 input   60.00 | X-H torsion
[ 5051 2219 2218 2215 ] final   33.49 input   60.00 | X-H torsion
[ 5018 2233 2232 2231 ] final   73.65 input   59.99 | X-H torsion
[ 5515 4319 4318 4315 ] final  159.24 input   60.00 | X-H torsion
[ 5604 4440 4439 4437 ] final  -97.76 input   60.00 | X-H torsion
[ 5608 4442 4441 4439 ] final  -75.80 input   60.00 | X-H torsion
[ 5645 4474 4473 4472 ] final -122.15 input   60.00 | X-H torsion
[ 5630 4476 4475 4473 ] final  -52.97 input   60.00 | X-H torsion
[ 5635 4478 4477 4475 ] final  139.68 input   60.00 | X-H torsion

> <Gold.Protein.ActiveResidues>
 TYR305  THR331  LEU332  MET333  LEU349  GLY350  MET351  HIS352  GLY353  ASN358 
 VAL372  ARG373  PHE374  ASP375  ASP376  ARG377  VAL378  THR379  GLY380  LYS381 
 LEU382  PHE385  LYS403  ASN404  MET490  GLY508  GLY509  TRP574  ILE651  PRO652 
 SER653  GLY654  GLY655  FAD701 

> <Gold.Protein.RotatedAtoms>
   42.1865   53.5369   59.2900 H   0  0  0  0  0  0  0  0  0  0  0  0  # atno 5018 bound_to 2233
   41.3008   53.6791   57.8962 H   0  0  0  0  0  0  0  0  0  0  0  0  # atno 5019 bound_to 2233
   42.8176   53.0125   57.8500 H   0  0  0  0  0  0  0  0  0  0  0  0  # atno 5020 bound_to 2233
   50.6677   60.5905   56.1883 H   0  0  0  0  0  0  0  0  0  0  0  0  # atno 5051 bound_to 2219
   51.9071   55.1385   49.5451 H   0  0  0  0  0  0  0  0  0  0  0  0  # atno 5515 bound_to 4319
   54.8814   73.1439   53.4517 H   0  0  0  0  0  0  0  0  0  0  0  0  # atno 5604 bound_to 4440
   56.7612   76.2551   51.9670 H   0  0  0  0  0  0  0  0  0  0  0  0  # atno 5608 bound_to 4442
   61.0974   65.0065   51.0235 H   0  0  0  0  0  0  0  0  0  0  0  0  # atno 5630 bound_to 4476
   59.4390   64.2754   55.0686 H   0  0  0  0  0  0  0  0  0  0  0  0  # atno 5635 bound_to 4478
   58.7418   63.6438   49.9189 H   0  0  0  0  0  0  0  0  0  0  0  0  # atno 5645 bound_to 4474
   54.5909   65.6066   58.6472 H   0  0  0  0  0  0  0  0  0  0  0  0  # atno 6671 bound_to 1667
   62.5763   66.7116   56.9508 H   0  0  0  0  0  0  0  0  0  0  0  0  # atno 6844 bound_to 1845
   56.0511   66.0775   58.1048 LP  0  0  0  0  0  0  0  0  0  0  0  0  # atno 8952 bound_to 1667
   54.8575   67.1744   58.3019 LP  0  0  0  0  0  0  0  0  0  0  0  0  # atno 8953 bound_to 1667
   61.5674   67.6560   57.8102 LP  0  0  0  0  0  0  0  0  0  0  0  0  # atno 8956 bound_to 1845
   61.2248   67.2930   56.2554 LP  0  0  0  0  0  0  0  0  0  0  0  0  # atno 8957 bound_to 1845
   51.2453   62.0644   55.8114 LP  0  0  0  0  0  0  0  0  0  0  0  0  # atno 9001 bound_to 2219
   49.6794   61.8823   56.2372 LP  0  0  0  0  0  0  0  0  0  0  0  0  # atno 9002 bound_to 2219
   51.8323   55.6127   51.0999 LP  0  0  0  0  0  0  0  0  0  0  0  0  # atno 9031 bound_to 4319
   50.6143   54.7408   50.4497 LP  0  0  0  0  0  0  0  0  0  0  0  0  # atno 9032 bound_to 4319
   54.8144   74.7335   53.7931 LP  0  0  0  0  0  0  0  0  0  0  0  0  # atno 9039 bound_to 4440
   55.1836   73.6584   54.9656 LP  0  0  0  0  0  0  0  0  0  0  0  0  # atno 9040 bound_to 4440
   56.9738   77.2603   53.2290 LP  0  0  0  0  0  0  0  0  0  0  0  0  # atno 9041 bound_to 4442
   55.6207   76.3523   53.1237 LP  0  0  0  0  0  0  0  0  0  0  0  0  # atno 9042 bound_to 4442
   58.2961   62.1619   50.4223 LP  0  0  0  0  0  0  0  0  0  0  0  0  # atno 9052 bound_to 4474
   59.7985   62.4094   49.8321 LP  0  0  0  0  0  0  0  0  0  0  0  0  # atno 9053 bound_to 4474
   60.1226   66.3093   50.9980 LP  0  0  0  0  0  0  0  0  0  0  0  0  # atno 9054 bound_to 4476
   59.8974   65.0963   49.9281 LP  0  0  0  0  0  0  0  0  0  0  0  0  # atno 9055 bound_to 4476
   58.5895   63.5381   53.8927 LP  0  0  0  0  0  0  0  0  0  0  0  0  # atno 9056 bound_to 4478
   58.0262   64.9121   54.5721 LP  0  0  0  0  0  0  0  0  0  0  0  0  # atno 9057 bound_to 4478

$$$$
