C12H12ClN5O4S|Chlorsulfuron|mol|1|dock18
  -GOLD-   23022 1373D 1   1.00000     0.00000
 
 35 36  0  0  0  0  0  0  0  0  1 V2000
   59.2967   51.7784   45.0235 C   0  0  0  0  0  0  0  0  0  0  0  0
   58.7769   52.8346   45.9645 C   0  0  0  0  0  0  0  0  0  0  0  0
   57.8933   53.7198   45.5385 N   0  0  0  0  0  0  0  0  0  0  0  0
   57.4327   54.6530   46.3668 C   0  0  0  0  0  0  0  0  0  0  0  0
   57.8622   54.6939   47.6226 N   0  0  0  0  0  0  0  0  0  0  0  0
   58.7497   53.8031   48.0467 C   0  0  0  0  0  0  0  0  0  0  0  0
   59.2018   52.8699   47.2158 N   0  0  0  0  0  0  0  0  0  0  0  0
   59.1900   53.8420   49.3256 O   0  0  0  0  0  0  0  0  0  0  0  0
   59.8217   55.1110   49.5065 C   0  0  0  0  0  0  0  0  0  0  0  0
   56.5067   55.5813   45.9198 N   0  0  0  0  0  0  0  0  0  0  0  0
   56.9202   56.7815   45.4672 C   0  0  0  0  0  0  0  0  0  0  0  0
   58.1058   57.0496   45.4513 O   0  0  0  0  0  0  0  0  0  0  0  0
   56.0193   57.6848   45.0324 N   0  0  0  0  0  0  0  0  0  0  0  0
   56.5141   59.2034   44.5950 S   0  0  0  0  0  0  0  0  0  0  0  0
   57.7557   59.0274   43.9268 O   0  0  0  0  0  0  0  0  0  0  0  0
   55.3680   59.8400   44.0469 O   0  0  0  0  0  0  0  0  0  0  0  0
   56.8877   60.0825   46.0756 C   0  0  0  0  0  0  0  0  0  0  0  0
   55.8979   60.7961   46.7242 C   0  0  0  0  0  0  0  0  0  0  0  0
   56.1908   61.4860   47.8859 C   0  0  0  0  0  0  0  0  0  0  0  0
   57.4740   61.4629   48.3991 C   0  0  0  0  0  0  0  0  0  0  0  0
   58.4652   60.7498   47.7511 C   0  0  0  0  0  0  0  0  0  0  0  0
   58.1711   60.0540   46.5922 C   0  0  0  0  0  0  0  0  0  0  0  0
   59.4152   59.1578   45.7780 Cl  0  0  0  0  0  0  0  0  0  0  0  0
   60.1859   52.1507   44.5149 H   0  0  0  0  0  0  0  0  0  0  0  0
   59.5501   50.8813   45.5884 H   0  0  0  0  0  0  0  0  0  0  0  0
   58.5301   51.5392   44.2865 H   0  0  0  0  0  0  0  0  0  0  0  0
   60.1945   55.1889   50.5278 H   0  0  0  0  0  0  0  0  0  0  0  0
   60.6531   55.2058   48.8080 H   0  0  0  0  0  0  0  0  0  0  0  0
   59.0994   55.9061   49.3217 H   0  0  0  0  0  0  0  0  0  0  0  0
   55.5606   55.3675   45.9326 H   0  0  0  0  0  0  0  0  0  0  0  0
   55.0811   57.4452   44.9755 H   0  0  0  0  0  0  0  0  0  0  0  0
   54.8952   60.8151   46.3233 H   0  0  0  0  0  0  0  0  0  0  0  0
   55.4169   62.0435   48.3925 H   0  0  0  0  0  0  0  0  0  0  0  0
   57.7024   62.0023   49.3065 H   0  0  0  0  0  0  0  0  0  0  0  0
   59.4680   60.7324   48.1517 H   0  0  0  0  0  0  0  0  0  0  0  0
  1  2  1  0  0  0  0
  2  3  2  0  0  0  0
  3  4  1  0  0  0  0
  4  5  2  0  0  0  0
  5  6  1  0  0  0  0
  6  7  2  0  0  0  0
  2  7  1  0  0  0  0
  6  8  1  0  0  0  0
  8  9  1  0  0  0  0
  4 10  1  0  0  0  0
 10 11  1  0  0  0  0
 11 12  2  0  0  0  0
 11 13  1  0  0  0  0
 13 14  1  0  0  0  0
 14 15  2  0  0  0  0
 14 16  2  0  0  0  0
 14 17  1  0  0  0  0
 17 18  2  0  0  0  0
 18 19  1  0  0  0  0
 19 20  2  0  0  0  0
 20 21  1  0  0  0  0
 21 22  2  0  0  0  0
 17 22  1  0  0  0  0
 22 23  1  0  0  0  0
  1 24  1  0  0  0  0
  1 25  1  0  0  0  0
  1 26  1  0  0  0  0
  9 27  1  0  0  0  0
  9 28  1  0  0  0  0
  9 29  1  0  0  0  0
 10 30  1  0  0  0  0
 13 31  1  0  0  0  0
 18 32  1  0  0  0  0
 19 33  1  0  0  0  0
 20 34  1  0  0  0  0
 21 35  1  0  0  0  0
M  END
> <Gold.Version>
2021.2.0

> <Gold.Id.Protein>
1YHZ|1YHZ_protein|mol2

> <Gold.PLP.Fitness>
39.9221

> <Gold.PLP.PLP>
-41.3185

> <Gold.PLP.part.hbond>
-1.8987

> <Gold.PLP.part.metal>
0.0000

> <Gold.PLP.part.buried>
-3.3160

> <Gold.PLP.part.nonpolar>
-36.0231

> <Gold.PLP.part.repulsive>
0.2178

> <Gold.PLP.ligand.clash>
0.4151

> <Gold.PLP.ligand.torsion>
2.2148

> <Gold.PLP.Chemscore.Hbond>
0.0530

> <Gold.PLP.Chemscore.CHOScore>
0.0000

> <Gold.PLP.Chemscore.Metal>
0.0000

> <Gold.Chemscore.Hbonds>
donor molecule, donor type, donor heavy atom, donor atom, acceptor molecule, acceptor atom, score
      P1  H  2206  5009       L1     5  0.05

> <Gold.PLP.Chemscore.Internal.Correction>
3.2893

> <Gold.Protein.RotatedTorsions>
[ 6671 1667 1666 1664 ] final  135.05 input   60.00 | X-H torsion
[ 6844 1845 1844 1841 ] final  -12.02 input   60.00 | X-H torsion
[ 5051 2219 2218 2215 ] final  142.33 input   60.00 | X-H torsion
[ 5018 2233 2232 2231 ] final -172.82 input   59.99 | X-H torsion
[ 5515 4319 4318 4315 ] final  117.44 input   60.00 | X-H torsion
[ 5604 4440 4439 4437 ] final -168.36 input   60.00 | X-H torsion
[ 5608 4442 4441 4439 ] final -134.71 input   60.00 | X-H torsion
[ 5645 4474 4473 4472 ] final  101.09 input   60.00 | X-H torsion
[ 5630 4476 4475 4473 ] final -165.21 input   60.00 | X-H torsion
[ 5635 4478 4477 4475 ] final  172.91 input   60.00 | X-H torsion

> <Gold.Protein.ActiveResidues>
 TYR305  THR331  LEU332  MET333  LEU349  GLY350  MET351  HIS352  GLY353  ASN358 
 VAL372  ARG373  PHE374  ASP375  ASP376  ARG377  VAL378  THR379  GLY380  LYS381 
 LEU382  PHE385  LYS403  ASN404  MET490  GLY508  GLY509  TRP574  ILE651  PRO652 
 SER653  GLY654  GLY655  FAD701 

> <Gold.Protein.RotatedAtoms>
   41.2649   53.7116   57.9929 H   0  0  0  0  0  0  0  0  0  0  0  0  # atno 5018 bound_to 2233
   42.7555   53.0241   57.7627 H   0  0  0  0  0  0  0  0  0  0  0  0  # atno 5019 bound_to 2233
   42.2845   53.4929   59.2811 H   0  0  0  0  0  0  0  0  0  0  0  0  # atno 5020 bound_to 2233
   49.6379   61.7089   56.2770 H   0  0  0  0  0  0  0  0  0  0  0  0  # atno 5051 bound_to 2219
   52.2570   55.4779   50.0019 H   0  0  0  0  0  0  0  0  0  0  0  0  # atno 5515 bound_to 4319
   54.7350   74.1926   53.2295 H   0  0  0  0  0  0  0  0  0  0  0  0  # atno 5604 bound_to 4440
   57.2767   76.8777   52.4081 H   0  0  0  0  0  0  0  0  0  0  0  0  # atno 5608 bound_to 4442
   60.2186   66.2876   51.0788 H   0  0  0  0  0  0  0  0  0  0  0  0  # atno 5630 bound_to 4476
   59.1392   64.7016   55.1909 H   0  0  0  0  0  0  0  0  0  0  0  0  # atno 5635 bound_to 4478
   58.5039   61.9859   50.3926 H   0  0  0  0  0  0  0  0  0  0  0  0  # atno 5645 bound_to 4474
   54.3819   65.8808   58.6682 H   0  0  0  0  0  0  0  0  0  0  0  0  # atno 6671 bound_to 1667
   62.4986   66.9903   57.5746 H   0  0  0  0  0  0  0  0  0  0  0  0  # atno 6844 bound_to 1845
   55.9340   65.7624   58.1938 LP  0  0  0  0  0  0  0  0  0  0  0  0  # atno 8952 bound_to 1667
   55.1850   67.2134   58.1917 LP  0  0  0  0  0  0  0  0  0  0  0  0  # atno 8953 bound_to 1667
   61.0923   67.7683   57.3192 LP  0  0  0  0  0  0  0  0  0  0  0  0  # atno 8956 bound_to 1845
   61.7781   66.9001   56.1182 LP  0  0  0  0  0  0  0  0  0  0  0  0  # atno 8957 bound_to 1845
   50.8404   60.6215   56.1372 LP  0  0  0  0  0  0  0  0  0  0  0  0  # atno 9001 bound_to 2219
   51.1214   62.1989   55.8221 LP  0  0  0  0  0  0  0  0  0  0  0  0  # atno 9002 bound_to 2219
   51.2371   55.3449   51.2629 LP  0  0  0  0  0  0  0  0  0  0  0  0  # atno 9031 bound_to 4319
   50.8571   54.6669   49.8267 LP  0  0  0  0  0  0  0  0  0  0  0  0  # atno 9032 bound_to 4319
   55.0770   74.4222   54.8038 LP  0  0  0  0  0  0  0  0  0  0  0  0  # atno 9039 bound_to 4440
   55.0684   72.9136   54.1787 LP  0  0  0  0  0  0  0  0  0  0  0  0  # atno 9040 bound_to 4440
   56.1572   77.0002   53.5827 LP  0  0  0  0  0  0  0  0  0  0  0  0  # atno 9041 bound_to 4442
   55.9183   75.9855   52.3258 LP  0  0  0  0  0  0  0  0  0  0  0  0  # atno 9042 bound_to 4442
   59.8360   62.6712   49.7573 LP  0  0  0  0  0  0  0  0  0  0  0  0  # atno 9052 bound_to 4474
   58.4982   63.5699   50.0201 LP  0  0  0  0  0  0  0  0  0  0  0  0  # atno 9053 bound_to 4474
   59.8253   65.2014   49.9327 LP  0  0  0  0  0  0  0  0  0  0  0  0  # atno 9054 bound_to 4476
   61.0798   64.9141   50.9378 LP  0  0  0  0  0  0  0  0  0  0  0  0  # atno 9055 bound_to 4476
   59.0536   63.4514   54.1529 LP  0  0  0  0  0  0  0  0  0  0  0  0  # atno 9056 bound_to 4478
   57.8640   64.5695   54.1887 LP  0  0  0  0  0  0  0  0  0  0  0  0  # atno 9057 bound_to 4478

$$$$
