C12H12ClN5O4S|Chlorsulfuron|mol|1|dock9
  -GOLD-   23022 1373D 1   1.00000     0.00000
 
 35 36  0  0  0  0  0  0  0  0  1 V2000
   51.4689   68.7640   45.5014 C   0  0  0  0  0  0  0  0  0  0  0  0
   52.1732   67.9542   46.5595 C   0  0  0  0  0  0  0  0  0  0  0  0
   53.1605   67.1439   46.2210 N   0  0  0  0  0  0  0  0  0  0  0  0
   53.7839   66.4281   47.1527 C   0  0  0  0  0  0  0  0  0  0  0  0
   53.4128   66.5289   48.4237 N   0  0  0  0  0  0  0  0  0  0  0  0
   52.4209   67.3438   48.7596 C   0  0  0  0  0  0  0  0  0  0  0  0
   51.8056   68.0603   47.8248 N   0  0  0  0  0  0  0  0  0  0  0  0
   52.0395   67.4487   50.0536 O   0  0  0  0  0  0  0  0  0  0  0  0
   51.6989   66.1320   50.4919 C   0  0  0  0  0  0  0  0  0  0  0  0
   54.8186   65.5782   46.7976 N   0  0  0  0  0  0  0  0  0  0  0  0
   54.5804   64.2634   46.6210 C   0  0  0  0  0  0  0  0  0  0  0  0
   53.4575   63.8233   46.7735 O   0  0  0  0  0  0  0  0  0  0  0  0
   55.5871   63.4365   46.2755 N   0  0  0  0  0  0  0  0  0  0  0  0
   55.3228   61.8044   46.1816 S   0  0  0  0  0  0  0  0  0  0  0  0
   54.4330   61.4955   47.2455 O   0  0  0  0  0  0  0  0  0  0  0  0
   55.0883   61.5298   44.8072 O   0  0  0  0  0  0  0  0  0  0  0  0
   56.8402   61.0014   46.5781 C   0  0  0  0  0  0  0  0  0  0  0  0
   57.1210   60.6622   47.8880 C   0  0  0  0  0  0  0  0  0  0  0  0
   58.3116   60.0322   48.1993 C   0  0  0  0  0  0  0  0  0  0  0  0
   59.2220   59.7416   47.2007 C   0  0  0  0  0  0  0  0  0  0  0  0
   58.9426   60.0807   45.8901 C   0  0  0  0  0  0  0  0  0  0  0  0
   57.7485   60.7053   45.5771 C   0  0  0  0  0  0  0  0  0  0  0  0
   57.3966   61.1310   43.9313 Cl  0  0  0  0  0  0  0  0  0  0  0  0
   50.6254   68.1953   45.1102 H   0  0  0  0  0  0  0  0  0  0  0  0
   51.1081   69.6957   45.9372 H   0  0  0  0  0  0  0  0  0  0  0  0
   52.1638   68.9866   44.6917 H   0  0  0  0  0  0  0  0  0  0  0  0
   51.3838   66.1664   51.5349 H   0  0  0  0  0  0  0  0  0  0  0  0
   50.8852   65.7442   49.8791 H   0  0  0  0  0  0  0  0  0  0  0  0
   52.5679   65.4810   50.3962 H   0  0  0  0  0  0  0  0  0  0  0  0
   55.7147   65.9293   46.6759 H   0  0  0  0  0  0  0  0  0  0  0  0
   56.4663   63.7974   46.0818 H   0  0  0  0  0  0  0  0  0  0  0  0
   56.4102   60.8897   48.6688 H   0  0  0  0  0  0  0  0  0  0  0  0
   58.5306   59.7673   49.2231 H   0  0  0  0  0  0  0  0  0  0  0  0
   60.1521   59.2497   47.4445 H   0  0  0  0  0  0  0  0  0  0  0  0
   59.6543   59.8544   45.1100 H   0  0  0  0  0  0  0  0  0  0  0  0
  1  2  1  0  0  0  0
  2  3  2  0  0  0  0
  3  4  1  0  0  0  0
  4  5  2  0  0  0  0
  5  6  1  0  0  0  0
  6  7  2  0  0  0  0
  2  7  1  0  0  0  0
  6  8  1  0  0  0  0
  8  9  1  0  0  0  0
  4 10  1  0  0  0  0
 10 11  1  0  0  0  0
 11 12  2  0  0  0  0
 11 13  1  0  0  0  0
 13 14  1  0  0  0  0
 14 15  2  0  0  0  0
 14 16  2  0  0  0  0
 14 17  1  0  0  0  0
 17 18  2  0  0  0  0
 18 19  1  0  0  0  0
 19 20  2  0  0  0  0
 20 21  1  0  0  0  0
 21 22  2  0  0  0  0
 17 22  1  0  0  0  0
 22 23  1  0  0  0  0
  1 24  1  0  0  0  0
  1 25  1  0  0  0  0
  1 26  1  0  0  0  0
  9 27  1  0  0  0  0
  9 28  1  0  0  0  0
  9 29  1  0  0  0  0
 10 30  1  0  0  0  0
 13 31  1  0  0  0  0
 18 32  1  0  0  0  0
 19 33  1  0  0  0  0
 20 34  1  0  0  0  0
 21 35  1  0  0  0  0
M  END
> <Gold.Version>
2021.2.0

> <Gold.Id.Protein>
1YHZ|1YHZ_protein|mol2

> <Gold.PLP.Fitness>
35.4807

> <Gold.PLP.PLP>
-28.3992

> <Gold.PLP.part.hbond>
-4.0739

> <Gold.PLP.part.metal>
0.0000

> <Gold.PLP.part.buried>
-3.4327

> <Gold.PLP.part.nonpolar>
-21.7820

> <Gold.PLP.part.repulsive>
0.5505

> <Gold.PLP.ligand.clash>
0.0000

> <Gold.PLP.ligand.torsion>
2.3207

> <Gold.PLP.Chemscore.Hbond>
2.8106

> <Gold.PLP.Chemscore.CHOScore>
0.0000

> <Gold.PLP.Chemscore.Metal>
0.0000

> <Gold.Chemscore.Hbonds>
donor molecule, donor type, donor heavy atom, donor atom, acceptor molecule, acceptor atom, score
      L1  H    13    31       P1  3227  1.00
      P1  H  2167  4959       L1     5  0.83
      P1  H  2394  7072       L1     8  0.98

> <Gold.PLP.Chemscore.Internal.Correction>
3.2911

> <Gold.Protein.RotatedTorsions>
[ 6671 1667 1666 1664 ] final  137.64 input   60.00 | X-H torsion
[ 6844 1845 1844 1841 ] final   71.40 input   60.00 | X-H torsion
[ 5051 2219 2218 2215 ] final   62.92 input   60.00 | X-H torsion
[ 5018 2233 2232 2231 ] final -115.10 input   59.99 | X-H torsion
[ 5515 4319 4318 4315 ] final  169.88 input   60.00 | X-H torsion
[ 5604 4440 4439 4437 ] final  -65.51 input   60.00 | X-H torsion
[ 5608 4442 4441 4439 ] final   48.08 input   60.00 | X-H torsion
[ 5645 4474 4473 4472 ] final   84.89 input   60.00 | X-H torsion
[ 5630 4476 4475 4473 ] final   88.75 input   60.00 | X-H torsion
[ 5635 4478 4477 4475 ] final  167.52 input   60.00 | X-H torsion

> <Gold.Protein.ActiveResidues>
 TYR305  THR331  LEU332  MET333  LEU349  GLY350  MET351  HIS352  GLY353  ASN358 
 VAL372  ARG373  PHE374  ASP375  ASP376  ARG377  VAL378  THR379  GLY380  LYS381 
 LEU382  PHE385  LYS403  ASN404  MET490  GLY508  GLY509  TRP574  ILE651  PRO652 
 SER653  GLY654  GLY655  FAD701 

> <Gold.Protein.RotatedAtoms>
   41.8845   53.3422   57.4160 H   0  0  0  0  0  0  0  0  0  0  0  0  # atno 5018 bound_to 2233
   42.9485   53.0969   58.6631 H   0  0  0  0  0  0  0  0  0  0  0  0  # atno 5019 bound_to 2233
   41.4717   53.7896   58.9576 H   0  0  0  0  0  0  0  0  0  0  0  0  # atno 5020 bound_to 2233
   50.2090   60.6580   56.2944 H   0  0  0  0  0  0  0  0  0  0  0  0  # atno 5051 bound_to 2219
   51.7705   55.0467   49.4904 H   0  0  0  0  0  0  0  0  0  0  0  0  # atno 5515 bound_to 4319
   55.0066   72.9230   53.9055 H   0  0  0  0  0  0  0  0  0  0  0  0  # atno 5604 bound_to 4440
   55.6377   76.3920   53.1709 H   0  0  0  0  0  0  0  0  0  0  0  0  # atno 5608 bound_to 4442
   59.7247   65.4010   49.9800 H   0  0  0  0  0  0  0  0  0  0  0  0  # atno 5630 bound_to 4476
   59.2012   64.6395   55.1860 H   0  0  0  0  0  0  0  0  0  0  0  0  # atno 5635 bound_to 4478
   58.7354   61.8721   50.3373 H   0  0  0  0  0  0  0  0  0  0  0  0  # atno 5645 bound_to 4474
   54.3632   65.9189   58.6678 H   0  0  0  0  0  0  0  0  0  0  0  0  # atno 6671 bound_to 1667
   62.2623   66.6972   56.3869 H   0  0  0  0  0  0  0  0  0  0  0  0  # atno 6844 bound_to 1845
   55.9120   65.7279   58.2065 LP  0  0  0  0  0  0  0  0  0  0  0  0  # atno 8952 bound_to 1667
   55.2258   67.2095   58.1795 LP  0  0  0  0  0  0  0  0  0  0  0  0  # atno 8953 bound_to 1667
   62.1283   67.3344   57.8783 LP  0  0  0  0  0  0  0  0  0  0  0  0  # atno 8956 bound_to 1845
   60.9801   67.6291   56.7552 LP  0  0  0  0  0  0  0  0  0  0  0  0  # atno 8957 bound_to 1845
   51.4336   61.6244   55.8316 LP  0  0  0  0  0  0  0  0  0  0  0  0  # atno 9001 bound_to 2219
   49.9531   62.2544   56.1102 LP  0  0  0  0  0  0  0  0  0  0  0  0  # atno 9002 bound_to 2219
   51.9638   55.6476   50.9902 LP  0  0  0  0  0  0  0  0  0  0  0  0  # atno 9031 bound_to 4319
   50.6204   54.7984   50.6145 LP  0  0  0  0  0  0  0  0  0  0  0  0  # atno 9032 bound_to 4319
   54.7427   74.4361   53.3680 LP  0  0  0  0  0  0  0  0  0  0  0  0  # atno 9039 bound_to 4440
   55.1291   74.1784   54.9336 LP  0  0  0  0  0  0  0  0  0  0  0  0  # atno 9040 bound_to 4440
   56.7087   76.2197   51.9579 LP  0  0  0  0  0  0  0  0  0  0  0  0  # atno 9041 bound_to 4442
   57.0172   77.2550   53.1825 LP  0  0  0  0  0  0  0  0  0  0  0  0  # atno 9042 bound_to 4442
   59.8004   62.9300   49.7091 LP  0  0  0  0  0  0  0  0  0  0  0  0  # atno 9052 bound_to 4474
   58.3007   63.4256   50.1239 LP  0  0  0  0  0  0  0  0  0  0  0  0  # atno 9053 bound_to 4474
   61.0041   64.7783   50.7695 LP  0  0  0  0  0  0  0  0  0  0  0  0  # atno 9054 bound_to 4476
   60.3983   66.2301   51.2075 LP  0  0  0  0  0  0  0  0  0  0  0  0  # atno 9055 bound_to 4476
   58.9828   63.4476   54.0998 LP  0  0  0  0  0  0  0  0  0  0  0  0  # atno 9056 bound_to 4478
   57.8724   64.6359   54.2467 LP  0  0  0  0  0  0  0  0  0  0  0  0  # atno 9057 bound_to 4478

$$$$
