C12H12ClN5O4S|Chlorsulfuron|mol|1|dock6
  -GOLD-   23022 1373D 1   1.00000     0.00000
 
 35 36  0  0  0  0  0  0  0  0  1 V2000
   51.1025   67.0091   45.1135 C   0  0  0  0  0  0  0  0  0  0  0  0
   51.9593   66.7316   46.3219 C   0  0  0  0  0  0  0  0  0  0  0  0
   53.0218   65.9539   46.2120 N   0  0  0  0  0  0  0  0  0  0  0  0
   53.7798   65.7073   47.2768 C   0  0  0  0  0  0  0  0  0  0  0  0
   53.4673   66.2439   48.4506 N   0  0  0  0  0  0  0  0  0  0  0  0
   52.3995   67.0245   48.5568 C   0  0  0  0  0  0  0  0  0  0  0  0
   51.6493   67.2714   47.4881 N   0  0  0  0  0  0  0  0  0  0  0  0
   52.0777   67.5726   49.7514 O   0  0  0  0  0  0  0  0  0  0  0  0
   51.9863   66.4973   50.6880 C   0  0  0  0  0  0  0  0  0  0  0  0
   54.8934   64.8915   47.1615 N   0  0  0  0  0  0  0  0  0  0  0  0
   54.7859   63.6836   46.5734 C   0  0  0  0  0  0  0  0  0  0  0  0
   53.7116   63.3100   46.1442 O   0  0  0  0  0  0  0  0  0  0  0  0
   55.8693   62.8897   46.4612 N   0  0  0  0  0  0  0  0  0  0  0  0
   55.7135   61.3570   45.8539 S   0  0  0  0  0  0  0  0  0  0  0  0
   54.4496   60.8897   46.3047 O   0  0  0  0  0  0  0  0  0  0  0  0
   56.1246   61.4362   44.4960 O   0  0  0  0  0  0  0  0  0  0  0  0
   56.9122   60.3471   46.6588 C   0  0  0  0  0  0  0  0  0  0  0  0
   57.6747   60.8663   47.6877 C   0  0  0  0  0  0  0  0  0  0  0  0
   58.6154   60.0740   48.3193 C   0  0  0  0  0  0  0  0  0  0  0  0
   58.7940   58.7623   47.9218 C   0  0  0  0  0  0  0  0  0  0  0  0
   58.0322   58.2419   46.8924 C   0  0  0  0  0  0  0  0  0  0  0  0
   57.0863   59.0322   46.2644 C   0  0  0  0  0  0  0  0  0  0  0  0
   56.1288   58.3792   44.9719 Cl  0  0  0  0  0  0  0  0  0  0  0  0
   50.3182   66.2555   45.0435 H   0  0  0  0  0  0  0  0  0  0  0  0
   50.6503   67.9964   45.2077 H   0  0  0  0  0  0  0  0  0  0  0  0
   51.7193   66.9761   44.2154 H   0  0  0  0  0  0  0  0  0  0  0  0
   51.7276   66.8923   51.6705 H   0  0  0  0  0  0  0  0  0  0  0  0
   51.2164   65.7973   50.3636 H   0  0  0  0  0  0  0  0  0  0  0  0
   52.9452   65.9822   50.7445 H   0  0  0  0  0  0  0  0  0  0  0  0
   55.7507   65.1895   47.5040 H   0  0  0  0  0  0  0  0  0  0  0  0
   56.7403   63.2163   46.7362 H   0  0  0  0  0  0  0  0  0  0  0  0
   57.5360   61.8914   47.9983 H   0  0  0  0  0  0  0  0  0  0  0  0
   59.2111   60.4802   49.1233 H   0  0  0  0  0  0  0  0  0  0  0  0
   59.5292   58.1440   48.4153 H   0  0  0  0  0  0  0  0  0  0  0  0
   58.1724   57.2172   46.5813 H   0  0  0  0  0  0  0  0  0  0  0  0
  1  2  1  0  0  0  0
  2  3  2  0  0  0  0
  3  4  1  0  0  0  0
  4  5  2  0  0  0  0
  5  6  1  0  0  0  0
  6  7  2  0  0  0  0
  2  7  1  0  0  0  0
  6  8  1  0  0  0  0
  8  9  1  0  0  0  0
  4 10  1  0  0  0  0
 10 11  1  0  0  0  0
 11 12  2  0  0  0  0
 11 13  1  0  0  0  0
 13 14  1  0  0  0  0
 14 15  2  0  0  0  0
 14 16  2  0  0  0  0
 14 17  1  0  0  0  0
 17 18  2  0  0  0  0
 18 19  1  0  0  0  0
 19 20  2  0  0  0  0
 20 21  1  0  0  0  0
 21 22  2  0  0  0  0
 17 22  1  0  0  0  0
 22 23  1  0  0  0  0
  1 24  1  0  0  0  0
  1 25  1  0  0  0  0
  1 26  1  0  0  0  0
  9 27  1  0  0  0  0
  9 28  1  0  0  0  0
  9 29  1  0  0  0  0
 10 30  1  0  0  0  0
 13 31  1  0  0  0  0
 18 32  1  0  0  0  0
 19 33  1  0  0  0  0
 20 34  1  0  0  0  0
 21 35  1  0  0  0  0
M  END
> <Gold.Version>
2021.2.0

> <Gold.Id.Protein>
1YHZ|1YHZ_protein|mol2

> <Gold.PLP.Fitness>
35.6223

> <Gold.PLP.PLP>
-29.1758

> <Gold.PLP.part.hbond>
-4.0000

> <Gold.PLP.part.metal>
0.0000

> <Gold.PLP.part.buried>
-3.5464

> <Gold.PLP.part.nonpolar>
-21.7135

> <Gold.PLP.part.repulsive>
0.4387

> <Gold.PLP.ligand.clash>
0.0000

> <Gold.PLP.ligand.torsion>
2.3463

> <Gold.PLP.Chemscore.Hbond>
2.6160

> <Gold.PLP.Chemscore.CHOScore>
0.0000

> <Gold.PLP.Chemscore.Metal>
0.0000

> <Gold.Chemscore.Hbonds>
donor molecule, donor type, donor heavy atom, donor atom, acceptor molecule, acceptor atom, score
      L1  H    13    31       P1  3227  0.75
      P1  H  2167  4959       L1     5  1.00
      P1  H  2394  7072       L1     8  0.86

> <Gold.PLP.Chemscore.Internal.Correction>
3.2911

> <Gold.Protein.RotatedTorsions>
[ 6671 1667 1666 1664 ] final  128.77 input   60.00 | X-H torsion
[ 6844 1845 1844 1841 ] final -151.04 input   60.00 | X-H torsion
[ 5051 2219 2218 2215 ] final   31.87 input   60.00 | X-H torsion
[ 5018 2233 2232 2231 ] final    6.71 input   59.99 | X-H torsion
[ 5515 4319 4318 4315 ] final  -97.27 input   60.00 | X-H torsion
[ 5604 4440 4439 4437 ] final  130.43 input   60.00 | X-H torsion
[ 5608 4442 4441 4439 ] final  -66.42 input   60.00 | X-H torsion
[ 5645 4474 4473 4472 ] final  -36.92 input   60.00 | X-H torsion
[ 5630 4476 4475 4473 ] final -157.89 input   60.00 | X-H torsion
[ 5635 4478 4477 4475 ] final -167.75 input   60.00 | X-H torsion

> <Gold.Protein.ActiveResidues>
 TYR305  THR331  LEU332  MET333  LEU349  GLY350  MET351  HIS352  GLY353  ASN358 
 VAL372  ARG373  PHE374  ASP375  ASP376  ARG377  VAL378  THR379  GLY380  LYS381 
 LEU382  PHE385  LYS403  ASN404  MET490  GLY508  GLY509  TRP574  ILE651  PRO652 
 SER653  GLY654  GLY655  FAD701 

> <Gold.Protein.RotatedAtoms>
   42.9405   53.1053   58.6909 H   0  0  0  0  0  0  0  0  0  0  0  0  # atno 5018 bound_to 2233
   41.4526   53.7938   58.9344 H   0  0  0  0  0  0  0  0  0  0  0  0  # atno 5019 bound_to 2233
   41.9117   53.3296   57.4110 H   0  0  0  0  0  0  0  0  0  0  0  0  # atno 5020 bound_to 2233
   50.6929   60.5938   56.1814 H   0  0  0  0  0  0  0  0  0  0  0  0  # atno 5051 bound_to 2219
   50.6680   54.6823   50.1918 H   0  0  0  0  0  0  0  0  0  0  0  0  # atno 5515 bound_to 4319
   54.8565   74.7697   53.9783 H   0  0  0  0  0  0  0  0  0  0  0  0  # atno 5604 bound_to 4440
   56.6306   76.1752   51.9679 H   0  0  0  0  0  0  0  0  0  0  0  0  # atno 5608 bound_to 4442
   60.3116   66.2599   51.1488 H   0  0  0  0  0  0  0  0  0  0  0  0  # atno 5630 bound_to 4476
   58.8878   64.8881   55.1593 H   0  0  0  0  0  0  0  0  0  0  0  0  # atno 5635 bound_to 4478
   59.7869   62.9572   49.7100 H   0  0  0  0  0  0  0  0  0  0  0  0  # atno 5645 bound_to 4474
   54.4335   65.7923   58.6664 H   0  0  0  0  0  0  0  0  0  0  0  0  # atno 6671 bound_to 1667
   60.9981   67.7160   57.0281 H   0  0  0  0  0  0  0  0  0  0  0  0  # atno 6844 bound_to 1845
   55.9805   65.8498   58.1647 LP  0  0  0  0  0  0  0  0  0  0  0  0  # atno 8952 bound_to 1667
   55.0866   67.2152   58.2226 LP  0  0  0  0  0  0  0  0  0  0  0  0  # atno 8953 bound_to 1667
   62.0445   66.7713   56.2152 LP  0  0  0  0  0  0  0  0  0  0  0  0  # atno 8956 bound_to 1845
   62.3369   67.1664   57.7725 LP  0  0  0  0  0  0  0  0  0  0  0  0  # atno 8957 bound_to 1845
   51.2290   62.0853   55.8123 LP  0  0  0  0  0  0  0  0  0  0  0  0  # atno 9001 bound_to 2219
   49.6704   61.8581   56.2433 LP  0  0  0  0  0  0  0  0  0  0  0  0  # atno 9002 bound_to 2219
   52.0903   55.2844   49.6794 LP  0  0  0  0  0  0  0  0  0  0  0  0  # atno 9031 bound_to 4319
   51.6042   55.5287   51.2190 LP  0  0  0  0  0  0  0  0  0  0  0  0  # atno 9032 bound_to 4319
   55.1864   73.4740   54.9058 LP  0  0  0  0  0  0  0  0  0  0  0  0  # atno 9039 bound_to 4440
   54.8366   73.2805   53.3225 LP  0  0  0  0  0  0  0  0  0  0  0  0  # atno 9040 bound_to 4440
   57.0743   77.2426   53.1133 LP  0  0  0  0  0  0  0  0  0  0  0  0  # atno 9041 bound_to 4442
   55.6517   76.4505   53.2384 LP  0  0  0  0  0  0  0  0  0  0  0  0  # atno 9042 bound_to 4442
   58.2816   63.4059   50.1353 LP  0  0  0  0  0  0  0  0  0  0  0  0  # atno 9052 bound_to 4474
   58.7605   61.8569   50.3295 LP  0  0  0  0  0  0  0  0  0  0  0  0  # atno 9053 bound_to 4474
   59.7664   65.3053   49.9490 LP  0  0  0  0  0  0  0  0  0  0  0  0  # atno 9054 bound_to 4476
   61.0450   64.8381   50.8509 LP  0  0  0  0  0  0  0  0  0  0  0  0  # atno 9055 bound_to 4476
   59.2771   63.5216   54.3661 LP  0  0  0  0  0  0  0  0  0  0  0  0  # atno 9056 bound_to 4478
   57.8937   64.3115   54.0073 LP  0  0  0  0  0  0  0  0  0  0  0  0  # atno 9057 bound_to 4478

$$$$
