C12H12ClN5O4S|Chlorsulfuron|mol|1|dock2
  -GOLD-   23022 1363D 1   1.00000     0.00000
 
 35 36  0  0  0  0  0  0  0  0  1 V2000
   49.9322   57.3429   48.1688 C   0  0  0  0  0  0  0  0  0  0  0  0
   51.2411   57.0790   47.4700 C   0  0  0  0  0  0  0  0  0  0  0  0
   51.7173   57.9597   46.6078 N   0  0  0  0  0  0  0  0  0  0  0  0
   52.8723   57.7294   45.9896 C   0  0  0  0  0  0  0  0  0  0  0  0
   53.5462   56.6130   46.2400 N   0  0  0  0  0  0  0  0  0  0  0  0
   53.0646   55.7309   47.1066 C   0  0  0  0  0  0  0  0  0  0  0  0
   51.9129   55.9694   47.7250 N   0  0  0  0  0  0  0  0  0  0  0  0
   53.7483   54.5919   47.3639 O   0  0  0  0  0  0  0  0  0  0  0  0
   52.9022   53.5065   46.9794 C   0  0  0  0  0  0  0  0  0  0  0  0
   53.3711   58.6528   45.0853 N   0  0  0  0  0  0  0  0  0  0  0  0
   54.7027   58.7989   44.9368 C   0  0  0  0  0  0  0  0  0  0  0  0
   55.4660   58.1205   45.5964 O   0  0  0  0  0  0  0  0  0  0  0  0
   55.1881   59.6973   44.0571 N   0  0  0  0  0  0  0  0  0  0  0  0
   56.8193   59.9672   43.9642 S   0  0  0  0  0  0  0  0  0  0  0  0
   57.3830   58.7597   43.4709 O   0  0  0  0  0  0  0  0  0  0  0  0
   56.9653   61.2477   43.3657 O   0  0  0  0  0  0  0  0  0  0  0  0
   57.4198   60.1377   45.6119 C   0  0  0  0  0  0  0  0  0  0  0  0
   56.5844   60.6094   46.6065 C   0  0  0  0  0  0  0  0  0  0  0  0
   57.0554   60.7434   47.8995 C   0  0  0  0  0  0  0  0  0  0  0  0
   58.3621   60.4059   48.1980 C   0  0  0  0  0  0  0  0  0  0  0  0
   59.1989   59.9343   47.2039 C   0  0  0  0  0  0  0  0  0  0  0  0
   58.7263   59.7939   45.9113 C   0  0  0  0  0  0  0  0  0  0  0  0
   59.7763   59.2012   44.6624 Cl  0  0  0  0  0  0  0  0  0  0  0  0
   49.1146   56.9327   47.5760 H   0  0  0  0  0  0  0  0  0  0  0  0
   49.9425   56.8692   49.1505 H   0  0  0  0  0  0  0  0  0  0  0  0
   49.7928   58.4176   48.2854 H   0  0  0  0  0  0  0  0  0  0  0  0
   53.4132   52.5626   47.1692 H   0  0  0  0  0  0  0  0  0  0  0  0
   51.9791   53.5428   47.5579 H   0  0  0  0  0  0  0  0  0  0  0  0
   52.6688   53.5862   45.9176 H   0  0  0  0  0  0  0  0  0  0  0  0
   52.7621   59.1942   44.5591 H   0  0  0  0  0  0  0  0  0  0  0  0
   54.5820   60.1856   43.4784 H   0  0  0  0  0  0  0  0  0  0  0  0
   55.5635   60.8739   46.3737 H   0  0  0  0  0  0  0  0  0  0  0  0
   56.4022   61.1121   48.6765 H   0  0  0  0  0  0  0  0  0  0  0  0
   58.7296   60.5111   49.2081 H   0  0  0  0  0  0  0  0  0  0  0  0
   60.2201   59.6714   47.4370 H   0  0  0  0  0  0  0  0  0  0  0  0
  1  2  1  0  0  0  0
  2  3  2  0  0  0  0
  3  4  1  0  0  0  0
  4  5  2  0  0  0  0
  5  6  1  0  0  0  0
  6  7  2  0  0  0  0
  2  7  1  0  0  0  0
  6  8  1  0  0  0  0
  8  9  1  0  0  0  0
  4 10  1  0  0  0  0
 10 11  1  0  0  0  0
 11 12  2  0  0  0  0
 11 13  1  0  0  0  0
 13 14  1  0  0  0  0
 14 15  2  0  0  0  0
 14 16  2  0  0  0  0
 14 17  1  0  0  0  0
 17 18  2  0  0  0  0
 18 19  1  0  0  0  0
 19 20  2  0  0  0  0
 20 21  1  0  0  0  0
 21 22  2  0  0  0  0
 17 22  1  0  0  0  0
 22 23  1  0  0  0  0
  1 24  1  0  0  0  0
  1 25  1  0  0  0  0
  1 26  1  0  0  0  0
  9 27  1  0  0  0  0
  9 28  1  0  0  0  0
  9 29  1  0  0  0  0
 10 30  1  0  0  0  0
 13 31  1  0  0  0  0
 18 32  1  0  0  0  0
 19 33  1  0  0  0  0
 20 34  1  0  0  0  0
 21 35  1  0  0  0  0
M  END
> <Gold.Version>
2021.2.0

> <Gold.Id.Protein>
1YHZ|1YHZ_protein|mol2

> <Gold.PLP.Fitness>
31.6791

> <Gold.PLP.PLP>
-26.2982

> <Gold.PLP.part.hbond>
-2.4207

> <Gold.PLP.part.metal>
0.0000

> <Gold.PLP.part.buried>
-3.9357

> <Gold.PLP.part.nonpolar>
-20.2202

> <Gold.PLP.part.repulsive>
0.2263

> <Gold.PLP.ligand.clash>
0.0000

> <Gold.PLP.ligand.torsion>
1.9735

> <Gold.PLP.Chemscore.Hbond>
2.0000

> <Gold.PLP.Chemscore.CHOScore>
0.0000

> <Gold.PLP.Chemscore.Metal>
0.0000

> <Gold.Chemscore.Hbonds>
donor molecule, donor type, donor heavy atom, donor atom, acceptor molecule, acceptor atom, score
      P1  H  2206  5008       L1     8  1.00
      P1  H  4319  5515       L1     7  1.00

> <Gold.PLP.Chemscore.Internal.Correction>
3.3279

> <Gold.Protein.RotatedTorsions>
[ 6671 1667 1666 1664 ] final   40.98 input   60.00 | X-H torsion
[ 6844 1845 1844 1841 ] final  121.73 input   60.00 | X-H torsion
[ 5051 2219 2218 2215 ] final  179.91 input   60.00 | X-H torsion
[ 5018 2233 2232 2231 ] final -113.80 input   59.99 | X-H torsion
[ 5515 4319 4318 4315 ] final  166.03 input   60.00 | X-H torsion
[ 5604 4440 4439 4437 ] final   41.92 input   60.00 | X-H torsion
[ 5608 4442 4441 4439 ] final  -72.42 input   60.00 | X-H torsion
[ 5645 4474 4473 4472 ] final  -37.82 input   60.00 | X-H torsion
[ 5630 4476 4475 4473 ] final   32.87 input   60.00 | X-H torsion
[ 5635 4478 4477 4475 ] final   32.31 input   60.00 | X-H torsion

> <Gold.Protein.ActiveResidues>
 TYR305  THR331  LEU332  MET333  LEU349  GLY350  MET351  HIS352  GLY353  ASN358 
 VAL372  ARG373  PHE374  ASP375  ASP376  ARG377  VAL378  THR379  GLY380  LYS381 
 LEU382  PHE385  LYS403  ASN404  MET490  GLY508  GLY509  TRP574  ILE651  PRO652 
 SER653  GLY654  GLY655  FAD701 

> <Gold.Protein.RotatedAtoms>
   41.9039   53.3331   57.4124 H   0  0  0  0  0  0  0  0  0  0  0  0  # atno 5018 bound_to 2233
   42.9428   53.1029   58.6832 H   0  0  0  0  0  0  0  0  0  0  0  0  # atno 5019 bound_to 2233
   41.4580   53.7927   58.9411 H   0  0  0  0  0  0  0  0  0  0  0  0  # atno 5020 bound_to 2233
   49.9216   62.2192   56.1261 H   0  0  0  0  0  0  0  0  0  0  0  0  # atno 5051 bound_to 2219
   51.8215   55.0797   49.5068 H   0  0  0  0  0  0  0  0  0  0  0  0  # atno 5515 bound_to 4319
   55.1588   73.9787   54.9733 H   0  0  0  0  0  0  0  0  0  0  0  0  # atno 5604 bound_to 4440
   56.7150   76.2251   51.9649 H   0  0  0  0  0  0  0  0  0  0  0  0  # atno 5608 bound_to 4442
   60.2969   64.7418   50.0670 H   0  0  0  0  0  0  0  0  0  0  0  0  # atno 5630 bound_to 4476
   58.7712   63.4813   53.9733 H   0  0  0  0  0  0  0  0  0  0  0  0  # atno 5635 bound_to 4478
   59.7824   62.9712   49.7083 H   0  0  0  0  0  0  0  0  0  0  0  0  # atno 5645 bound_to 4474
   55.6495   65.4837   58.3323 H   0  0  0  0  0  0  0  0  0  0  0  0  # atno 6671 bound_to 1667
   61.5849   67.0155   56.1150 H   0  0  0  0  0  0  0  0  0  0  0  0  # atno 6844 bound_to 1845
   55.5764   67.0908   58.0880 LP  0  0  0  0  0  0  0  0  0  0  0  0  # atno 8952 bound_to 1667
   54.2660   66.2849   58.6358 LP  0  0  0  0  0  0  0  0  0  0  0  0  # atno 8953 bound_to 1667
   62.5784   66.8780   57.3966 LP  0  0  0  0  0  0  0  0  0  0  0  0  # atno 8956 bound_to 1845
   61.2121   67.7650   57.5106 LP  0  0  0  0  0  0  0  0  0  0  0  0  # atno 8957 bound_to 1845
   50.2514   60.6337   56.2849 LP  0  0  0  0  0  0  0  0  0  0  0  0  # atno 9001 bound_to 2219
   51.4247   61.6727   55.8263 LP  0  0  0  0  0  0  0  0  0  0  0  0  # atno 9002 bound_to 2219
   51.9180   55.6368   51.0327 LP  0  0  0  0  0  0  0  0  0  0  0  0  # atno 9031 bound_to 4319
   50.6149   54.7760   50.5556 LP  0  0  0  0  0  0  0  0  0  0  0  0  # atno 9032 bound_to 4319
   54.9550   72.9708   53.7122 LP  0  0  0  0  0  0  0  0  0  0  0  0  # atno 9039 bound_to 4440
   54.7635   74.5804   53.5140 LP  0  0  0  0  0  0  0  0  0  0  0  0  # atno 9040 bound_to 4440
   57.0117   77.2559   53.1886 LP  0  0  0  0  0  0  0  0  0  0  0  0  # atno 9041 bound_to 4442
   55.6293   76.3869   53.1662 LP  0  0  0  0  0  0  0  0  0  0  0  0  # atno 9042 bound_to 4442
   58.2723   63.3958   50.1410 LP  0  0  0  0  0  0  0  0  0  0  0  0  # atno 9052 bound_to 4474
   58.7743   61.8529   50.3255 LP  0  0  0  0  0  0  0  0  0  0  0  0  # atno 9053 bound_to 4474
   61.0512   65.4779   51.3068 LP  0  0  0  0  0  0  0  0  0  0  0  0  # atno 9054 bound_to 4476
   59.7750   66.1943   50.5826 LP  0  0  0  0  0  0  0  0  0  0  0  0  # atno 9055 bound_to 4476
   57.9344   64.8029   54.4216 LP  0  0  0  0  0  0  0  0  0  0  0  0  # atno 9056 bound_to 4478
   59.3538   64.4470   55.1463 LP  0  0  0  0  0  0  0  0  0  0  0  0  # atno 9057 bound_to 4478

$$$$
