C12H12ClN5O4S|Chlorsulfuron|mol|1|dock16
  -GOLD-   2292221533D 1   1.00000     0.00000
 
 35 36  0  0  0  0  0  0  0  0  1 V2000
   67.3722  -73.9965  -13.7991 C   0  0  0  0  0  0  0  0  0  0  0  0
   66.4432  -74.9486  -14.5075 C   0  0  0  0  0  0  0  0  0  0  0  0
   65.3108  -75.3142  -13.9333 N   0  0  0  0  0  0  0  0  0  0  0  0
   64.4890  -76.1544  -14.5563 C   0  0  0  0  0  0  0  0  0  0  0  0
   64.8082  -76.6252  -15.7561 N   0  0  0  0  0  0  0  0  0  0  0  0
   65.9464  -76.2556  -16.3295 C   0  0  0  0  0  0  0  0  0  0  0  0
   66.7606  -75.4117  -15.7043 N   0  0  0  0  0  0  0  0  0  0  0  0
   66.2753  -76.7337  -17.5518 O   0  0  0  0  0  0  0  0  0  0  0  0
   65.2388  -76.3265  -18.4473 C   0  0  0  0  0  0  0  0  0  0  0  0
   63.3020  -76.5380  -13.9539 N   0  0  0  0  0  0  0  0  0  0  0  0
   62.1268  -76.0780  -14.4270 C   0  0  0  0  0  0  0  0  0  0  0  0
   62.1084  -75.3264  -15.3822 O   0  0  0  0  0  0  0  0  0  0  0  0
   60.9719  -76.4512  -13.8409 N   0  0  0  0  0  0  0  0  0  0  0  0
   59.5384  -75.7892  -14.3400 S   0  0  0  0  0  0  0  0  0  0  0  0
   58.5195  -76.5704  -13.7311 O   0  0  0  0  0  0  0  0  0  0  0  0
   59.6922  -74.3836  -14.1987 O   0  0  0  0  0  0  0  0  0  0  0  0
   59.3968  -76.0835  -16.0715 C   0  0  0  0  0  0  0  0  0  0  0  0
   60.2530  -76.9720  -16.6938 C   0  0  0  0  0  0  0  0  0  0  0  0
   60.1422  -77.2029  -18.0524 C   0  0  0  0  0  0  0  0  0  0  0  0
   59.1754  -76.5451  -18.7892 C   0  0  0  0  0  0  0  0  0  0  0  0
   58.3186  -75.6557  -18.1680 C   0  0  0  0  0  0  0  0  0  0  0  0
   58.4248  -75.4291  -16.8074 C   0  0  0  0  0  0  0  0  0  0  0  0
   57.3488  -74.3128  -16.0265 Cl  0  0  0  0  0  0  0  0  0  0  0  0
   68.0759  -74.5622  -13.1886 H   0  0  0  0  0  0  0  0  0  0  0  0
   67.9206  -73.4087  -14.5353 H   0  0  0  0  0  0  0  0  0  0  0  0
   66.7919  -73.3299  -13.1612 H   0  0  0  0  0  0  0  0  0  0  0  0
   65.4613  -76.6907  -19.4503 H   0  0  0  0  0  0  0  0  0  0  0  0
   64.2871  -76.7399  -18.1134 H   0  0  0  0  0  0  0  0  0  0  0  0
   65.1773  -75.2383  -18.4611 H   0  0  0  0  0  0  0  0  0  0  0  0
   63.3166  -77.1378  -13.1916 H   0  0  0  0  0  0  0  0  0  0  0  0
   60.9804  -77.1076  -13.1268 H   0  0  0  0  0  0  0  0  0  0  0  0
   61.0092  -77.4858  -16.1187 H   0  0  0  0  0  0  0  0  0  0  0  0
   60.8115  -77.8974  -18.5383 H   0  0  0  0  0  0  0  0  0  0  0  0
   59.0895  -76.7257  -19.8505 H   0  0  0  0  0  0  0  0  0  0  0  0
   57.5637  -75.1411  -18.7439 H   0  0  0  0  0  0  0  0  0  0  0  0
  1  2  1  0  0  0  0
  2  3  2  0  0  0  0
  3  4  1  0  0  0  0
  4  5  2  0  0  0  0
  5  6  1  0  0  0  0
  6  7  2  0  0  0  0
  2  7  1  0  0  0  0
  6  8  1  0  0  0  0
  8  9  1  0  0  0  0
  4 10  1  0  0  0  0
 10 11  1  0  0  0  0
 11 12  2  0  0  0  0
 11 13  1  0  0  0  0
 13 14  1  0  0  0  0
 14 15  2  0  0  0  0
 14 16  2  0  0  0  0
 14 17  1  0  0  0  0
 17 18  2  0  0  0  0
 18 19  1  0  0  0  0
 19 20  2  0  0  0  0
 20 21  1  0  0  0  0
 21 22  2  0  0  0  0
 17 22  1  0  0  0  0
 22 23  1  0  0  0  0
  1 24  1  0  0  0  0
  1 25  1  0  0  0  0
  1 26  1  0  0  0  0
  9 27  1  0  0  0  0
  9 28  1  0  0  0  0
  9 29  1  0  0  0  0
 10 30  1  0  0  0  0
 13 31  1  0  0  0  0
 18 32  1  0  0  0  0
 19 33  1  0  0  0  0
 20 34  1  0  0  0  0
 21 35  1  0  0  0  0
M  END
> <Gold.Version>
2021.2.0

> <Gold.Id.Protein>
5K6Q|5K6Q_protein|mol2

> <Gold.PLP.Fitness>
28.7676

> <Gold.PLP.PLP>
-21.3887

> <Gold.PLP.part.hbond>
-4.6739

> <Gold.PLP.part.metal>
0.0000

> <Gold.PLP.part.buried>
-5.2464

> <Gold.PLP.part.nonpolar>
-13.0654

> <Gold.PLP.part.repulsive>
0.4685

> <Gold.PLP.ligand.clash>
0.0000

> <Gold.PLP.ligand.torsion>
2.4730

> <Gold.PLP.Chemscore.Hbond>
3.0157

> <Gold.PLP.Chemscore.CHOScore>
0.0000

> <Gold.PLP.Chemscore.Metal>
0.0000

> <Gold.Chemscore.Hbonds>
donor molecule, donor type, donor heavy atom, donor atom, acceptor molecule, acceptor atom, score
      L1  H    10    30       P1  2230  1.00
      L1  H    13    31       P1  2230  0.20
      P1  H  2203  7120       L1    16  1.00
      P1  H  4717  8548       L1     8  0.82

> <Gold.PLP.Chemscore.Internal.Correction>
3.2778

> <Gold.Protein.RotatedTorsions>
[ 5877 1703 1702 1700 ] final -167.84 input   60.01 | X-H torsion
[ 6057 1881 1880 1877 ] final  -50.56 input   60.00 | X-H torsion
[ 7193 2255 2254 2251 ] final  143.69 input   60.00 | X-H torsion
[ 7182 2269 2268 2267 ] final  -12.22 input   59.99 | X-H torsion
[ 6931 4361 4360 4357 ] final   42.14 input   60.01 | X-H torsion
[ 8180 4471 4470 4468 ] final   -1.99 input   60.00 | X-H torsion
[ 8184 4473 4472 4470 ] final  179.37 input   60.00 | X-H torsion
[ 8203 4505 4504 4503 ] final  -12.99 input   60.00 | X-H torsion
[ 8212 4507 4506 4504 ] final   64.66 input   60.00 | X-H torsion
[ 8221 4509 4508 4506 ] final -179.07 input   60.00 | X-H torsion

> <Gold.Protein.ActiveResidues>
 TYR305  THR331  LEU332  MET333  LEU349  GLY350  MET351  HIS352  GLY353  ASN358 
 VAL372  ARG373  PHE374  ASP375  ASP376  ARG377  VAL378  THR379  GLY380  LYS381 
 LEU382  PHE385  ASN404  GLY508  GLY509  TRP574  ILE651  PRO652  SER653  GLY654 
 GLY655  FAD702  HOH839  HOH865  HOH881  HOH913  HOH945  HOH958  HOH960  HOH966 
 HOH968 

> <Gold.Protein.RotatedAtoms>
   59.5249  -74.0923   -3.4051 H   0  0  0  0  0  0  0  0  0  0  0  0  # atno 5877 bound_to 1703
   62.1710  -67.0813   -4.0127 H   0  0  0  0  0  0  0  0  0  0  0  0  # atno 6057 bound_to 1881
   70.0301  -81.1202  -11.4303 H   0  0  0  0  0  0  0  0  0  0  0  0  # atno 6931 bound_to 4361
   62.7764  -90.6287   -2.4280 H   0  0  0  0  0  0  0  0  0  0  0  0  # atno 7182 bound_to 2269
   63.4339  -89.7376   -1.1947 H   0  0  0  0  0  0  0  0  0  0  0  0  # atno 7183 bound_to 2269
   61.7875  -89.8426   -1.3548 H   0  0  0  0  0  0  0  0  0  0  0  0  # atno 7184 bound_to 2269
   60.6238  -80.8316   -5.4374 H   0  0  0  0  0  0  0  0  0  0  0  0  # atno 7193 bound_to 2255
   53.5461  -69.8337   -6.9876 H   0  0  0  0  0  0  0  0  0  0  0  0  # atno 8180 bound_to 4471
   50.6883  -66.9218   -8.2679 H   0  0  0  0  0  0  0  0  0  0  0  0  # atno 8184 bound_to 4473
   65.0266  -71.9660  -12.0550 H   0  0  0  0  0  0  0  0  0  0  0  0  # atno 8203 bound_to 4505
   63.1926  -70.0247  -11.8065 H   0  0  0  0  0  0  0  0  0  0  0  0  # atno 8212 bound_to 4507
   62.7850  -71.4726   -6.8967 H   0  0  0  0  0  0  0  0  0  0  0  0  # atno 8221 bound_to 4509
   61.1196  -74.0641   -3.0824 LP  0  0  0  0  0  0  0  0  0  0  0  0  # atno 9612 bound_to 1703
   60.3917  -72.7543   -3.7314 LP  0  0  0  0  0  0  0  0  0  0  0  0  # atno 9613 bound_to 1703
   61.4274  -68.0264   -5.1091 LP  0  0  0  0  0  0  0  0  0  0  0  0  # atno 9616 bound_to 1881
   62.8115  -67.2523   -5.4989 LP  0  0  0  0  0  0  0  0  0  0  0  0  # atno 9617 bound_to 1881
   62.1925  -80.4831   -5.6938 LP  0  0  0  0  0  0  0  0  0  0  0  0  # atno 9661 bound_to 2255
   61.0464  -79.3529   -5.9692 LP  0  0  0  0  0  0  0  0  0  0  0  0  # atno 9662 bound_to 2255
   68.4449  -80.9342  -11.7474 LP  0  0  0  0  0  0  0  0  0  0  0  0  # atno 9687 bound_to 4361
   69.4495  -81.5060  -12.9008 LP  0  0  0  0  0  0  0  0  0  0  0  0  # atno 9688 bound_to 4361
   53.2227  -70.1143   -8.5575 LP  0  0  0  0  0  0  0  0  0  0  0  0  # atno 9695 bound_to 4471
   52.1215  -69.3608   -7.6161 LP  0  0  0  0  0  0  0  0  0  0  0  0  # atno 9696 bound_to 4471
   51.1235  -68.3917   -7.7221 LP  0  0  0  0  0  0  0  0  0  0  0  0  # atno 9697 bound_to 4473
   51.3518  -67.9995   -9.2908 LP  0  0  0  0  0  0  0  0  0  0  0  0  # atno 9698 bound_to 4473
   63.4723  -72.4104  -11.8688 LP  0  0  0  0  0  0  0  0  0  0  0  0  # atno 9706 bound_to 4505
   64.6705  -73.3611  -11.2968 LP  0  0  0  0  0  0  0  0  0  0  0  0  # atno 9707 bound_to 4505
   63.8871  -69.2675  -10.5446 LP  0  0  0  0  0  0  0  0  0  0  0  0  # atno 9708 bound_to 4507
   62.2645  -69.2380  -10.7260 LP  0  0  0  0  0  0  0  0  0  0  0  0  # atno 9709 bound_to 4507
   63.9406  -71.9676   -7.9301 LP  0  0  0  0  0  0  0  0  0  0  0  0  # atno 9710 bound_to 4509
   62.3987  -72.4695   -8.1235 LP  0  0  0  0  0  0  0  0  0  0  0  0  # atno 9711 bound_to 4509

$$$$
