C12H12ClN5O4S|Chlorsulfuron|mol|1|dock47
  -GOLD-   2292221543D 1   1.00000     0.00000
 
 35 36  0  0  0  0  0  0  0  0  1 V2000
   64.1235  -74.9921  -18.1180 C   0  0  0  0  0  0  0  0  0  0  0  0
   64.5042  -75.2518  -16.6832 C   0  0  0  0  0  0  0  0  0  0  0  0
   64.2664  -76.4333  -16.1416 N   0  0  0  0  0  0  0  0  0  0  0  0
   64.6014  -76.6652  -14.8754 C   0  0  0  0  0  0  0  0  0  0  0  0
   65.1752  -75.7078  -14.1563 N   0  0  0  0  0  0  0  0  0  0  0  0
   65.4124  -74.5225  -14.7038 C   0  0  0  0  0  0  0  0  0  0  0  0
   65.0803  -74.2988  -15.9709 N   0  0  0  0  0  0  0  0  0  0  0  0
   65.9965  -73.5442  -13.9739 O   0  0  0  0  0  0  0  0  0  0  0  0
   67.3113  -74.0001  -13.6493 C   0  0  0  0  0  0  0  0  0  0  0  0
   64.3515  -77.9039  -14.3076 N   0  0  0  0  0  0  0  0  0  0  0  0
   64.6375  -79.0291  -14.9922 C   0  0  0  0  0  0  0  0  0  0  0  0
   65.1146  -78.9570  -16.1080 O   0  0  0  0  0  0  0  0  0  0  0  0
   64.3943  -80.2342  -14.4399 N   0  0  0  0  0  0  0  0  0  0  0  0
   64.6268  -81.6135  -15.3264 S   0  0  0  0  0  0  0  0  0  0  0  0
   65.7830  -81.3740  -16.1170 O   0  0  0  0  0  0  0  0  0  0  0  0
   64.4626  -82.6909  -14.4145 O   0  0  0  0  0  0  0  0  0  0  0  0
   63.2871  -81.7407  -16.4638 C   0  0  0  0  0  0  0  0  0  0  0  0
   63.5376  -81.8242  -17.8202 C   0  0  0  0  0  0  0  0  0  0  0  0
   62.4865  -81.9239  -18.7128 C   0  0  0  0  0  0  0  0  0  0  0  0
   61.1845  -81.9397  -18.2491 C   0  0  0  0  0  0  0  0  0  0  0  0
   60.9326  -81.8559  -16.8926 C   0  0  0  0  0  0  0  0  0  0  0  0
   61.9841  -81.7626  -15.9985 C   0  0  0  0  0  0  0  0  0  0  0  0
   61.6685  -81.6578  -14.2947 Cl  0  0  0  0  0  0  0  0  0  0  0  0
   63.1060  -74.6035  -18.1594 H   0  0  0  0  0  0  0  0  0  0  0  0
   64.8089  -74.2625  -18.5495 H   0  0  0  0  0  0  0  0  0  0  0  0
   64.1803  -75.9225  -18.6831 H   0  0  0  0  0  0  0  0  0  0  0  0
   67.8235  -73.2408  -13.0583 H   0  0  0  0  0  0  0  0  0  0  0  0
   67.2440  -74.9238  -13.0746 H   0  0  0  0  0  0  0  0  0  0  0  0
   67.8694  -74.1834  -14.5675 H   0  0  0  0  0  0  0  0  0  0  0  0
   63.9707  -77.9615  -13.4173 H   0  0  0  0  0  0  0  0  0  0  0  0
   64.0832  -80.2936  -13.5231 H   0  0  0  0  0  0  0  0  0  0  0  0
   64.5548  -81.8111  -18.1832 H   0  0  0  0  0  0  0  0  0  0  0  0
   62.6828  -81.9891  -19.7729 H   0  0  0  0  0  0  0  0  0  0  0  0
   60.3638  -82.0174  -18.9469 H   0  0  0  0  0  0  0  0  0  0  0  0
   59.9152  -81.8675  -16.5304 H   0  0  0  0  0  0  0  0  0  0  0  0
  1  2  1  0  0  0  0
  2  3  2  0  0  0  0
  3  4  1  0  0  0  0
  4  5  2  0  0  0  0
  5  6  1  0  0  0  0
  6  7  2  0  0  0  0
  2  7  1  0  0  0  0
  6  8  1  0  0  0  0
  8  9  1  0  0  0  0
  4 10  1  0  0  0  0
 10 11  1  0  0  0  0
 11 12  2  0  0  0  0
 11 13  1  0  0  0  0
 13 14  1  0  0  0  0
 14 15  2  0  0  0  0
 14 16  2  0  0  0  0
 14 17  1  0  0  0  0
 17 18  2  0  0  0  0
 18 19  1  0  0  0  0
 19 20  2  0  0  0  0
 20 21  1  0  0  0  0
 21 22  2  0  0  0  0
 17 22  1  0  0  0  0
 22 23  1  0  0  0  0
  1 24  1  0  0  0  0
  1 25  1  0  0  0  0
  1 26  1  0  0  0  0
  9 27  1  0  0  0  0
  9 28  1  0  0  0  0
  9 29  1  0  0  0  0
 10 30  1  0  0  0  0
 13 31  1  0  0  0  0
 18 32  1  0  0  0  0
 19 33  1  0  0  0  0
 20 34  1  0  0  0  0
 21 35  1  0  0  0  0
M  END
> <Gold.Version>
2021.2.0

> <Gold.Id.Protein>
5K6Q|5K6Q_protein|mol2

> <Gold.PLP.Fitness>
23.8957

> <Gold.PLP.PLP>
-16.4797

> <Gold.PLP.part.hbond>
-6.8926

> <Gold.PLP.part.metal>
0.0000

> <Gold.PLP.part.buried>
-1.8979

> <Gold.PLP.part.nonpolar>
-10.7223

> <Gold.PLP.part.repulsive>
0.8618

> <Gold.PLP.ligand.clash>
0.0000

> <Gold.PLP.ligand.torsion>
1.9462

> <Gold.PLP.Chemscore.Hbond>
2.6792

> <Gold.PLP.Chemscore.CHOScore>
0.0000

> <Gold.PLP.Chemscore.Metal>
0.0000

> <Gold.Chemscore.Hbonds>
donor molecule, donor type, donor heavy atom, donor atom, acceptor molecule, acceptor atom, score
      L1  H    10    30       P1  2231  0.48
      L1  H    13    31       P1  2231  1.00
      P1  H  4723  8580       L1    15  0.40
      P1  H  4725  8552       L1    16  0.80

> <Gold.PLP.Chemscore.Internal.Correction>
3.2706

> <Gold.Protein.RotatedTorsions>
[ 5877 1703 1702 1700 ] final  -19.21 input   60.01 | X-H torsion
[ 6057 1881 1880 1877 ] final  169.33 input   60.00 | X-H torsion
[ 7193 2255 2254 2251 ] final -105.10 input   60.00 | X-H torsion
[ 7182 2269 2268 2267 ] final -160.45 input   59.99 | X-H torsion
[ 6931 4361 4360 4357 ] final   -4.54 input   60.01 | X-H torsion
[ 8180 4471 4470 4468 ] final  156.09 input   60.00 | X-H torsion
[ 8184 4473 4472 4470 ] final  141.99 input   60.00 | X-H torsion
[ 8203 4505 4504 4503 ] final   16.03 input   60.00 | X-H torsion
[ 8212 4507 4506 4504 ] final  -37.96 input   60.00 | X-H torsion
[ 8221 4509 4508 4506 ] final  103.40 input   60.00 | X-H torsion

> <Gold.Protein.ActiveResidues>
 TYR305  THR331  LEU332  MET333  LEU349  GLY350  MET351  HIS352  GLY353  ASN358 
 VAL372  ARG373  PHE374  ASP375  ASP376  ARG377  VAL378  THR379  GLY380  LYS381 
 LEU382  PHE385  ASN404  GLY508  GLY509  TRP574  ILE651  PRO652  SER653  GLY654 
 GLY655  FAD702  HOH839  HOH865  HOH881  HOH913  HOH945  HOH958  HOH960  HOH966 
 HOH968 

> <Gold.Protein.RotatedAtoms>
   60.8246  -72.8582   -3.5984 H   0  0  0  0  0  0  0  0  0  0  0  0  # atno 5877 bound_to 1703
   61.6030  -68.0242   -5.3863 H   0  0  0  0  0  0  0  0  0  0  0  0  # atno 6057 bound_to 1881
   69.3850  -80.9031  -11.1357 H   0  0  0  0  0  0  0  0  0  0  0  0  # atno 6931 bound_to 4361
   62.0718  -89.6262   -1.0542 H   0  0  0  0  0  0  0  0  0  0  0  0  # atno 7182 bound_to 2269
   62.3139  -90.5910   -2.3801 H   0  0  0  0  0  0  0  0  0  0  0  0  # atno 7183 bound_to 2269
   63.6129  -89.9916   -1.5431 H   0  0  0  0  0  0  0  0  0  0  0  0  # atno 7184 bound_to 2269
   60.9132  -79.3994   -5.9396 H   0  0  0  0  0  0  0  0  0  0  0  0  # atno 7193 bound_to 2255
   52.1911  -69.5465   -8.1961 H   0  0  0  0  0  0  0  0  0  0  0  0  # atno 8180 bound_to 4471
   50.6842  -67.2321   -7.7545 H   0  0  0  0  0  0  0  0  0  0  0  0  # atno 8184 bound_to 4473
   65.2801  -72.3071  -11.8564 H   0  0  0  0  0  0  0  0  0  0  0  0  # atno 8203 bound_to 4505
   64.0056  -69.4173  -10.7549 H   0  0  0  0  0  0  0  0  0  0  0  0  # atno 8212 bound_to 4507
   63.8484  -71.5796   -7.3784 H   0  0  0  0  0  0  0  0  0  0  0  0  # atno 8221 bound_to 4509
   59.4189  -73.6780   -3.5867 LP  0  0  0  0  0  0  0  0  0  0  0  0  # atno 9612 bound_to 1703
   60.7835  -74.3833   -3.0324 LP  0  0  0  0  0  0  0  0  0  0  0  0  # atno 9613 bound_to 1703
   62.9177  -67.0760   -5.2421 LP  0  0  0  0  0  0  0  0  0  0  0  0  # atno 9616 bound_to 1881
   61.8932  -67.2533   -3.9828 LP  0  0  0  0  0  0  0  0  0  0  0  0  # atno 9617 bound_to 1881
   60.7278  -80.9291   -5.4166 LP  0  0  0  0  0  0  0  0  0  0  0  0  # atno 9661 bound_to 2255
   62.2195  -80.3492   -5.7407 LP  0  0  0  0  0  0  0  0  0  0  0  0  # atno 9662 bound_to 2255
   68.4702  -81.1763  -12.4535 LP  0  0  0  0  0  0  0  0  0  0  0  0  # atno 9687 bound_to 4361
   70.0738  -81.4825  -12.4914 LP  0  0  0  0  0  0  0  0  0  0  0  0  # atno 9688 bound_to 4361
   53.0328  -69.5539   -6.8034 LP  0  0  0  0  0  0  0  0  0  0  0  0  # atno 9695 bound_to 4471
   53.6762  -70.2104   -8.1531 LP  0  0  0  0  0  0  0  0  0  0  0  0  # atno 9696 bound_to 4471
   51.3432  -68.6434   -8.2255 LP  0  0  0  0  0  0  0  0  0  0  0  0  # atno 9697 bound_to 4473
   51.1363  -67.4352   -9.3044 LP  0  0  0  0  0  0  0  0  0  0  0  0  # atno 9698 bound_to 4473
   63.6886  -72.0399  -12.0663 LP  0  0  0  0  0  0  0  0  0  0  0  0  # atno 9706 bound_to 4505
   64.1989  -73.3882  -11.2993 LP  0  0  0  0  0  0  0  0  0  0  0  0  # atno 9707 bound_to 4505
   62.4230  -69.1195  -10.5210 LP  0  0  0  0  0  0  0  0  0  0  0  0  # atno 9708 bound_to 4507
   62.9099  -69.9977  -11.8087 LP  0  0  0  0  0  0  0  0  0  0  0  0  # atno 9709 bound_to 4507
   63.0184  -72.5318   -8.4042 LP  0  0  0  0  0  0  0  0  0  0  0  0  # atno 9710 bound_to 4509
   62.2501  -71.7975   -7.1644 LP  0  0  0  0  0  0  0  0  0  0  0  0  # atno 9711 bound_to 4509

$$$$
