C12H12ClN5O4S|Chlorsulfuron|mol|1|dock25
  -GOLD-   2292221533D 1   1.00000     0.00000
 
 35 36  0  0  0  0  0  0  0  0  1 V2000
   59.0612  -76.6607  -17.8563 C   0  0  0  0  0  0  0  0  0  0  0  0
   59.8182  -76.2977  -16.6047 C   0  0  0  0  0  0  0  0  0  0  0  0
   60.7120  -77.1349  -16.1087 N   0  0  0  0  0  0  0  0  0  0  0  0
   61.3815  -76.8171  -15.0042 C   0  0  0  0  0  0  0  0  0  0  0  0
   61.1504  -75.6572  -14.4006 N   0  0  0  0  0  0  0  0  0  0  0  0
   60.2520  -74.8190  -14.9018 C   0  0  0  0  0  0  0  0  0  0  0  0
   59.5903  -75.1400  -16.0086 N   0  0  0  0  0  0  0  0  0  0  0  0
   60.0134  -73.6364  -14.2891 O   0  0  0  0  0  0  0  0  0  0  0  0
   59.0704  -72.9336  -15.1008 C   0  0  0  0  0  0  0  0  0  0  0  0
   62.3183  -77.6952  -14.4841 N   0  0  0  0  0  0  0  0  0  0  0  0
   63.1320  -78.3804  -15.3117 C   0  0  0  0  0  0  0  0  0  0  0  0
   63.0439  -78.2279  -16.5145 O   0  0  0  0  0  0  0  0  0  0  0  0
   64.0433  -79.2349  -14.8057 N   0  0  0  0  0  0  0  0  0  0  0  0
   64.9562  -80.1697  -15.8231 S   0  0  0  0  0  0  0  0  0  0  0  0
   65.2664  -79.3410  -16.9349 O   0  0  0  0  0  0  0  0  0  0  0  0
   65.9071  -80.8257  -14.9955 O   0  0  0  0  0  0  0  0  0  0  0  0
   63.9102  -81.4411  -16.4508 C   0  0  0  0  0  0  0  0  0  0  0  0
   63.6662  -81.5279  -17.8082 C   0  0  0  0  0  0  0  0  0  0  0  0
   62.8453  -82.5254  -18.3010 C   0  0  0  0  0  0  0  0  0  0  0  0
   62.2679  -83.4361  -17.4362 C   0  0  0  0  0  0  0  0  0  0  0  0
   62.5109  -83.3500  -16.0781 C   0  0  0  0  0  0  0  0  0  0  0  0
   63.3373  -82.3561  -15.5853 C   0  0  0  0  0  0  0  0  0  0  0  0
   63.6433  -82.2478  -13.8799 Cl  0  0  0  0  0  0  0  0  0  0  0  0
   58.1476  -77.1909  -17.5875 H   0  0  0  0  0  0  0  0  0  0  0  0
   58.8070  -75.7529  -18.4033 H   0  0  0  0  0  0  0  0  0  0  0  0
   59.6817  -77.3010  -18.4833 H   0  0  0  0  0  0  0  0  0  0  0  0
   58.8461  -71.9692  -14.6448 H   0  0  0  0  0  0  0  0  0  0  0  0
   59.4914  -72.7768  -16.0938 H   0  0  0  0  0  0  0  0  0  0  0  0
   58.1543  -73.5186  -15.1827 H   0  0  0  0  0  0  0  0  0  0  0  0
   62.3886  -77.8170  -13.5243 H   0  0  0  0  0  0  0  0  0  0  0  0
   64.1645  -79.3020  -13.8457 H   0  0  0  0  0  0  0  0  0  0  0  0
   64.1165  -80.8162  -18.4844 H   0  0  0  0  0  0  0  0  0  0  0  0
   62.6549  -82.5929  -19.3619 H   0  0  0  0  0  0  0  0  0  0  0  0
   61.6266  -84.2149  -17.8217 H   0  0  0  0  0  0  0  0  0  0  0  0
   62.0591  -84.0611  -15.4025 H   0  0  0  0  0  0  0  0  0  0  0  0
  1  2  1  0  0  0  0
  2  3  2  0  0  0  0
  3  4  1  0  0  0  0
  4  5  2  0  0  0  0
  5  6  1  0  0  0  0
  6  7  2  0  0  0  0
  2  7  1  0  0  0  0
  6  8  1  0  0  0  0
  8  9  1  0  0  0  0
  4 10  1  0  0  0  0
 10 11  1  0  0  0  0
 11 12  2  0  0  0  0
 11 13  1  0  0  0  0
 13 14  1  0  0  0  0
 14 15  2  0  0  0  0
 14 16  2  0  0  0  0
 14 17  1  0  0  0  0
 17 18  2  0  0  0  0
 18 19  1  0  0  0  0
 19 20  2  0  0  0  0
 20 21  1  0  0  0  0
 21 22  2  0  0  0  0
 17 22  1  0  0  0  0
 22 23  1  0  0  0  0
  1 24  1  0  0  0  0
  1 25  1  0  0  0  0
  1 26  1  0  0  0  0
  9 27  1  0  0  0  0
  9 28  1  0  0  0  0
  9 29  1  0  0  0  0
 10 30  1  0  0  0  0
 13 31  1  0  0  0  0
 18 32  1  0  0  0  0
 19 33  1  0  0  0  0
 20 34  1  0  0  0  0
 21 35  1  0  0  0  0
M  END
> <Gold.Version>
2021.2.0

> <Gold.Id.Protein>
5K6Q|5K6Q_protein|mol2

> <Gold.PLP.Fitness>
28.7597

> <Gold.PLP.PLP>
-16.0105

> <Gold.PLP.part.hbond>
-7.5569

> <Gold.PLP.part.metal>
0.0000

> <Gold.PLP.part.buried>
-4.1777

> <Gold.PLP.part.nonpolar>
-6.7380

> <Gold.PLP.part.repulsive>
0.5788

> <Gold.PLP.ligand.clash>
2.2968

> <Gold.PLP.ligand.torsion>
1.8533

> <Gold.PLP.Chemscore.Hbond>
5.1607

> <Gold.PLP.Chemscore.CHOScore>
0.0000

> <Gold.PLP.Chemscore.Metal>
0.0000

> <Gold.Chemscore.Hbonds>
donor molecule, donor type, donor heavy atom, donor atom, acceptor molecule, acceptor atom, score
      L1  H    10    30       P1  2230  0.99
      L1  H    13    31       P1  2231  1.00
      P1  H  2203  7120       L1     8  0.69
      P1  H  2204  7143       L1     8  0.48
      P1  H  2242  7198       L1    16  1.00
      P1  H  4723  8580       L1    16  1.00

> <Gold.PLP.Chemscore.Internal.Correction>
3.2706

> <Gold.Protein.RotatedTorsions>
[ 5877 1703 1702 1700 ] final  -40.58 input   60.01 | X-H torsion
[ 6057 1881 1880 1877 ] final  -61.31 input   60.00 | X-H torsion
[ 7193 2255 2254 2251 ] final  116.53 input   60.00 | X-H torsion
[ 7182 2269 2268 2267 ] final   48.58 input   59.99 | X-H torsion
[ 6931 4361 4360 4357 ] final -126.98 input   60.01 | X-H torsion
[ 8180 4471 4470 4468 ] final  105.58 input   60.00 | X-H torsion
[ 8184 4473 4472 4470 ] final  125.65 input   60.00 | X-H torsion
[ 8203 4505 4504 4503 ] final -123.41 input   60.00 | X-H torsion
[ 8212 4507 4506 4504 ] final  -93.34 input   60.00 | X-H torsion
[ 8221 4509 4508 4506 ] final  -29.74 input   60.00 | X-H torsion

> <Gold.Protein.ActiveResidues>
 TYR305  THR331  LEU332  MET333  LEU349  GLY350  MET351  HIS352  GLY353  ASN358 
 VAL372  ARG373  PHE374  ASP375  ASP376  ARG377  VAL378  THR379  GLY380  LYS381 
 LEU382  PHE385  ASN404  GLY508  GLY509  TRP574  ILE651  PRO652  SER653  GLY654 
 GLY655  FAD702  HOH839  HOH865  HOH881  HOH913  HOH945  HOH958  HOH960  HOH966 
 HOH968 

> <Gold.Protein.RotatedAtoms>
   60.5064  -72.7644   -3.7009 H   0  0  0  0  0  0  0  0  0  0  0  0  # atno 5877 bound_to 1703
   62.0224  -67.1706   -3.9861 H   0  0  0  0  0  0  0  0  0  0  0  0  # atno 6057 bound_to 1881
   68.4932  -81.1929  -12.4826 H   0  0  0  0  0  0  0  0  0  0  0  0  # atno 6931 bound_to 4361
   63.5497  -90.2893   -1.9536 H   0  0  0  0  0  0  0  0  0  0  0  0  # atno 7182 bound_to 2269
   62.5422  -89.5116   -0.8918 H   0  0  0  0  0  0  0  0  0  0  0  0  # atno 7183 bound_to 2269
   61.9061  -90.4081   -2.1324 H   0  0  0  0  0  0  0  0  0  0  0  0  # atno 7184 bound_to 2269
   60.9967  -81.0603   -5.3941 H   0  0  0  0  0  0  0  0  0  0  0  0  # atno 7193 bound_to 2255
   52.1883  -69.3369   -7.4253 H   0  0  0  0  0  0  0  0  0  0  0  0  # atno 8180 bound_to 4471
   50.7325  -67.4486   -7.6076 H   0  0  0  0  0  0  0  0  0  0  0  0  # atno 8184 bound_to 4473
   63.5257  -72.2794  -11.9368 H   0  0  0  0  0  0  0  0  0  0  0  0  # atno 8203 bound_to 4505
   63.3910  -69.0441  -10.2647 H   0  0  0  0  0  0  0  0  0  0  0  0  # atno 8212 bound_to 4507
   62.8095  -72.5399   -8.3531 H   0  0  0  0  0  0  0  0  0  0  0  0  # atno 8221 bound_to 4509
   59.4731  -73.9971   -3.4545 LP  0  0  0  0  0  0  0  0  0  0  0  0  # atno 9612 bound_to 1703
   61.0498  -74.1586   -3.0613 LP  0  0  0  0  0  0  0  0  0  0  0  0  # atno 9613 bound_to 1703
   61.5090  -68.0352   -5.2656 LP  0  0  0  0  0  0  0  0  0  0  0  0  # atno 9616 bound_to 1881
   62.8796  -67.1536   -5.3693 LP  0  0  0  0  0  0  0  0  0  0  0  0  # atno 9617 bound_to 1881
   62.2051  -80.0635   -5.8346 LP  0  0  0  0  0  0  0  0  0  0  0  0  # atno 9661 bound_to 2255
   60.6581  -79.5422   -5.8721 LP  0  0  0  0  0  0  0  0  0  0  0  0  # atno 9662 bound_to 2255
   70.0956  -81.4754  -12.4584 LP  0  0  0  0  0  0  0  0  0  0  0  0  # atno 9687 bound_to 4361
   69.3464  -80.8915  -11.1301 LP  0  0  0  0  0  0  0  0  0  0  0  0  # atno 9688 bound_to 4361
   53.6724  -69.9283   -7.1162 LP  0  0  0  0  0  0  0  0  0  0  0  0  # atno 9695 bound_to 4471
   53.0393  -70.0471   -8.6167 LP  0  0  0  0  0  0  0  0  0  0  0  0  # atno 9696 bound_to 4471
   51.4057  -68.6416   -8.4860 LP  0  0  0  0  0  0  0  0  0  0  0  0  # atno 9697 bound_to 4473
   51.0251  -67.2191   -9.1918 LP  0  0  0  0  0  0  0  0  0  0  0  0  # atno 9698 bound_to 4473
   64.5169  -73.3932  -11.2847 LP  0  0  0  0  0  0  0  0  0  0  0  0  # atno 9706 bound_to 4505
   65.1373  -72.0628  -11.9999 LP  0  0  0  0  0  0  0  0  0  0  0  0  # atno 9707 bound_to 4505
   62.1982  -69.5655  -11.2410 LP  0  0  0  0  0  0  0  0  0  0  0  0  # atno 9708 bound_to 4507
   63.7536  -69.9275  -11.5823 LP  0  0  0  0  0  0  0  0  0  0  0  0  # atno 9709 bound_to 4507
   62.3806  -71.6769   -7.0419 LP  0  0  0  0  0  0  0  0  0  0  0  0  # atno 9710 bound_to 4509
   63.9341  -71.6854   -7.5450 LP  0  0  0  0  0  0  0  0  0  0  0  0  # atno 9711 bound_to 4509

$$$$
