C12H12ClN5O4S|Chlorsulfuron|mol|1|dock8
  -GOLD-   2292221533D 1   1.00000     0.00000
 
 35 36  0  0  0  0  0  0  0  0  1 V2000
   63.5688  -74.9892  -18.4544 C   0  0  0  0  0  0  0  0  0  0  0  0
   63.9979  -75.1733  -17.0215 C   0  0  0  0  0  0  0  0  0  0  0  0
   63.1523  -75.6763  -16.1396 N   0  0  0  0  0  0  0  0  0  0  0  0
   63.5284  -75.8400  -14.8743 C   0  0  0  0  0  0  0  0  0  0  0  0
   64.7549  -75.4971  -14.4985 N   0  0  0  0  0  0  0  0  0  0  0  0
   65.6013  -74.9923  -15.3872 C   0  0  0  0  0  0  0  0  0  0  0  0
   65.2213  -74.8363  -16.6510 N   0  0  0  0  0  0  0  0  0  0  0  0
   66.8518  -74.6412  -15.0079 O   0  0  0  0  0  0  0  0  0  0  0  0
   66.7112  -73.7012  -13.9408 C   0  0  0  0  0  0  0  0  0  0  0  0
   62.6415  -76.3670  -13.9497 N   0  0  0  0  0  0  0  0  0  0  0  0
   61.3155  -76.1859  -14.1089 C   0  0  0  0  0  0  0  0  0  0  0  0
   60.8977  -75.5601  -15.0637 O   0  0  0  0  0  0  0  0  0  0  0  0
   60.4525  -76.6986  -13.2094 N   0  0  0  0  0  0  0  0  0  0  0  0
   58.8341  -76.3707  -13.3344 S   0  0  0  0  0  0  0  0  0  0  0  0
   58.2608  -76.7797  -12.1002 O   0  0  0  0  0  0  0  0  0  0  0  0
   58.7464  -75.0656  -13.8897 O   0  0  0  0  0  0  0  0  0  0  0  0
   58.1696  -77.4553  -14.5537 C   0  0  0  0  0  0  0  0  0  0  0  0
   58.0244  -77.0227  -15.8581 C   0  0  0  0  0  0  0  0  0  0  0  0
   57.5028  -77.8735  -16.8149 C   0  0  0  0  0  0  0  0  0  0  0  0
   57.1260  -79.1572  -16.4674 C   0  0  0  0  0  0  0  0  0  0  0  0
   57.2703  -79.5910  -15.1628 C   0  0  0  0  0  0  0  0  0  0  0  0
   57.7982  -78.7422  -14.2064 C   0  0  0  0  0  0  0  0  0  0  0  0
   57.9803  -79.2865  -12.5680 Cl  0  0  0  0  0  0  0  0  0  0  0  0
   63.1328  -73.9979  -18.5786 H   0  0  0  0  0  0  0  0  0  0  0  0
   64.4346  -75.0898  -19.1088 H   0  0  0  0  0  0  0  0  0  0  0  0
   62.8284  -75.7465  -18.7121 H   0  0  0  0  0  0  0  0  0  0  0  0
   67.6981  -73.3879  -13.6002 H   0  0  0  0  0  0  0  0  0  0  0  0
   66.1554  -72.8322  -14.2930 H   0  0  0  0  0  0  0  0  0  0  0  0
   66.1727  -74.1666  -13.1152 H   0  0  0  0  0  0  0  0  0  0  0  0
   62.9748  -76.8663  -13.1878 H   0  0  0  0  0  0  0  0  0  0  0  0
   60.7795  -77.2596  -12.4889 H   0  0  0  0  0  0  0  0  0  0  0  0
   58.3180  -76.0195  -16.1300 H   0  0  0  0  0  0  0  0  0  0  0  0
   57.3895  -77.5351  -17.8342 H   0  0  0  0  0  0  0  0  0  0  0  0
   56.7184  -79.8213  -17.2152 H   0  0  0  0  0  0  0  0  0  0  0  0
   56.9751  -80.5937  -14.8913 H   0  0  0  0  0  0  0  0  0  0  0  0
  1  2  1  0  0  0  0
  2  3  2  0  0  0  0
  3  4  1  0  0  0  0
  4  5  2  0  0  0  0
  5  6  1  0  0  0  0
  6  7  2  0  0  0  0
  2  7  1  0  0  0  0
  6  8  1  0  0  0  0
  8  9  1  0  0  0  0
  4 10  1  0  0  0  0
 10 11  1  0  0  0  0
 11 12  2  0  0  0  0
 11 13  1  0  0  0  0
 13 14  1  0  0  0  0
 14 15  2  0  0  0  0
 14 16  2  0  0  0  0
 14 17  1  0  0  0  0
 17 18  2  0  0  0  0
 18 19  1  0  0  0  0
 19 20  2  0  0  0  0
 20 21  1  0  0  0  0
 21 22  2  0  0  0  0
 17 22  1  0  0  0  0
 22 23  1  0  0  0  0
  1 24  1  0  0  0  0
  1 25  1  0  0  0  0
  1 26  1  0  0  0  0
  9 27  1  0  0  0  0
  9 28  1  0  0  0  0
  9 29  1  0  0  0  0
 10 30  1  0  0  0  0
 13 31  1  0  0  0  0
 18 32  1  0  0  0  0
 19 33  1  0  0  0  0
 20 34  1  0  0  0  0
 21 35  1  0  0  0  0
M  END
> <Gold.Version>
2021.2.0

> <Gold.Id.Protein>
5K6Q|5K6Q_protein|mol2

> <Gold.PLP.Fitness>
26.8350

> <Gold.PLP.PLP>
-18.4360

> <Gold.PLP.part.hbond>
-5.0000

> <Gold.PLP.part.metal>
0.0000

> <Gold.PLP.part.buried>
-4.2752

> <Gold.PLP.part.nonpolar>
-10.8487

> <Gold.PLP.part.repulsive>
0.6857

> <Gold.PLP.ligand.clash>
0.0000

> <Gold.PLP.ligand.torsion>
1.6507

> <Gold.PLP.Chemscore.Hbond>
2.8075

> <Gold.PLP.Chemscore.CHOScore>
0.0000

> <Gold.PLP.Chemscore.Metal>
0.0000

> <Gold.Chemscore.Hbonds>
donor molecule, donor type, donor heavy atom, donor atom, acceptor molecule, acceptor atom, score
      L1  H    10    30       P1  2230  0.93
      L1  H    13    31       P1  2230  0.91
      P1  H  2203  7120       L1    16  0.90
      P1  H  4670  8503       L1    15  0.07

> <Gold.PLP.Chemscore.Internal.Correction>
3.2778

> <Gold.Protein.RotatedTorsions>
[ 5877 1703 1702 1700 ] final  -27.38 input   60.01 | X-H torsion
[ 6057 1881 1880 1877 ] final -170.42 input   60.00 | X-H torsion
[ 7193 2255 2254 2251 ] final   80.08 input   60.00 | X-H torsion
[ 7182 2269 2268 2267 ] final   13.46 input   59.99 | X-H torsion
[ 6931 4361 4360 4357 ] final -172.35 input   60.01 | X-H torsion
[ 8180 4471 4470 4468 ] final  -96.12 input   60.00 | X-H torsion
[ 8184 4473 4472 4470 ] final   24.10 input   60.00 | X-H torsion
[ 8203 4505 4504 4503 ] final  141.84 input   60.00 | X-H torsion
[ 8212 4507 4506 4504 ] final  -95.37 input   60.00 | X-H torsion
[ 8221 4509 4508 4506 ] final  150.62 input   60.00 | X-H torsion

> <Gold.Protein.ActiveResidues>
 TYR305  THR331  LEU332  MET333  LEU349  GLY350  MET351  HIS352  GLY353  ASN358 
 VAL372  ARG373  PHE374  ASP375  ASP376  ARG377  VAL378  THR379  GLY380  LYS381 
 LEU382  PHE385  ASN404  GLY508  GLY509  TRP574  ILE651  PRO652  SER653  GLY654 
 GLY655  FAD702  HOH839  HOH865  HOH881  HOH913  HOH945  HOH958  HOH960  HOH966 
 HOH968 

> <Gold.Protein.RotatedAtoms>
   60.7086  -72.8087   -3.6415 H   0  0  0  0  0  0  0  0  0  0  0  0  # atno 5877 bound_to 1703
   61.4327  -68.0241   -5.1046 H   0  0  0  0  0  0  0  0  0  0  0  0  # atno 6057 bound_to 1881
   69.0417  -81.4297  -12.8882 H   0  0  0  0  0  0  0  0  0  0  0  0  # atno 6931 bound_to 4361
   63.1775  -90.5471   -2.3120 H   0  0  0  0  0  0  0  0  0  0  0  0  # atno 7182 bound_to 2269
   63.1106  -89.5737   -0.9721 H   0  0  0  0  0  0  0  0  0  0  0  0  # atno 7183 bound_to 2269
   61.7098  -90.0881   -1.6936 H   0  0  0  0  0  0  0  0  0  0  0  0  # atno 7184 bound_to 2269
   61.5803  -81.0742   -5.4408 H   0  0  0  0  0  0  0  0  0  0  0  0  # atno 7193 bound_to 2255
   53.5533  -70.1945   -8.3101 H   0  0  0  0  0  0  0  0  0  0  0  0  # atno 8180 bound_to 4471
   51.3335  -68.6315   -8.1938 H   0  0  0  0  0  0  0  0  0  0  0  0  # atno 8184 bound_to 4473
   64.1084  -73.3618  -11.3146 H   0  0  0  0  0  0  0  0  0  0  0  0  # atno 8203 bound_to 4505
   63.3594  -69.0371  -10.2582 H   0  0  0  0  0  0  0  0  0  0  0  0  # atno 8212 bound_to 4507
   63.2661  -71.3950   -6.9436 H   0  0  0  0  0  0  0  0  0  0  0  0  # atno 8221 bound_to 4509
   59.4246  -73.8030   -3.5382 LP  0  0  0  0  0  0  0  0  0  0  0  0  # atno 9612 bound_to 1703
   60.8945  -74.3082   -3.0374 LP  0  0  0  0  0  0  0  0  0  0  0  0  # atno 9613 bound_to 1703
   62.8104  -67.2537   -5.5005 LP  0  0  0  0  0  0  0  0  0  0  0  0  # atno 9616 bound_to 1881
   62.1719  -67.0757   -4.0081 LP  0  0  0  0  0  0  0  0  0  0  0  0  # atno 9617 bound_to 1881
   61.9099  -79.5719   -5.9723 LP  0  0  0  0  0  0  0  0  0  0  0  0  # atno 9661 bound_to 2255
   60.3656  -80.0198   -5.6874 LP  0  0  0  0  0  0  0  0  0  0  0  0  # atno 9662 bound_to 2255
   70.2147  -81.2664  -11.7722 LP  0  0  0  0  0  0  0  0  0  0  0  0  # atno 9687 bound_to 4361
   68.6750  -80.8621  -11.4079 LP  0  0  0  0  0  0  0  0  0  0  0  0  # atno 9688 bound_to 4361
   52.1238  -69.4719   -8.0232 LP  0  0  0  0  0  0  0  0  0  0  0  0  # atno 9695 bound_to 4471
   53.2133  -69.6398   -6.8185 LP  0  0  0  0  0  0  0  0  0  0  0  0  # atno 9696 bound_to 4471
   51.1503  -67.4654   -9.3139 LP  0  0  0  0  0  0  0  0  0  0  0  0  # atno 9697 bound_to 4473
   50.6753  -67.2039   -7.7736 LP  0  0  0  0  0  0  0  0  0  0  0  0  # atno 9698 bound_to 4473
   65.3116  -72.3865  -11.8138 LP  0  0  0  0  0  0  0  0  0  0  0  0  # atno 9706 bound_to 4505
   63.7558  -71.9794  -12.0974 LP  0  0  0  0  0  0  0  0  0  0  0  0  # atno 9707 bound_to 4505
   62.2061  -69.5836  -11.2679 LP  0  0  0  0  0  0  0  0  0  0  0  0  # atno 9708 bound_to 4507
   63.7775  -69.9165  -11.5620 LP  0  0  0  0  0  0  0  0  0  0  0  0  # atno 9709 bound_to 4507
   63.7054  -72.2587   -8.2509 LP  0  0  0  0  0  0  0  0  0  0  0  0  # atno 9710 bound_to 4509
   62.1494  -72.2565   -7.7555 LP  0  0  0  0  0  0  0  0  0  0  0  0  # atno 9711 bound_to 4509

$$$$
