C12H12ClN5O4S|Chlorsulfuron|mol|1|dock12
  -GOLD-   2292221533D 1   1.00000     0.00000
 
 35 36  0  0  0  0  0  0  0  0  1 V2000
   67.5989  -74.0000  -13.8909 C   0  0  0  0  0  0  0  0  0  0  0  0
   66.6175  -74.9379  -14.5455 C   0  0  0  0  0  0  0  0  0  0  0  0
   65.5098  -75.2802  -13.9118 N   0  0  0  0  0  0  0  0  0  0  0  0
   64.6419  -76.1078  -14.4871 C   0  0  0  0  0  0  0  0  0  0  0  0
   64.8902  -76.5896  -15.6993 N   0  0  0  0  0  0  0  0  0  0  0  0
   66.0038  -76.2435  -16.3325 C   0  0  0  0  0  0  0  0  0  0  0  0
   66.8643  -75.4120  -15.7546 N   0  0  0  0  0  0  0  0  0  0  0  0
   66.2605  -76.7328  -17.5676 O   0  0  0  0  0  0  0  0  0  0  0  0
   66.3496  -75.6097  -18.4466 C   0  0  0  0  0  0  0  0  0  0  0  0
   63.4807  -76.4670  -13.8224 N   0  0  0  0  0  0  0  0  0  0  0  0
   62.2797  -76.1415  -14.3401 C   0  0  0  0  0  0  0  0  0  0  0  0
   62.2153  -75.5326  -15.3903 O   0  0  0  0  0  0  0  0  0  0  0  0
   61.1499  -76.4908  -13.6934 N   0  0  0  0  0  0  0  0  0  0  0  0
   59.6797  -75.9831  -14.2618 S   0  0  0  0  0  0  0  0  0  0  0  0
   58.7144  -76.8142  -13.6321 O   0  0  0  0  0  0  0  0  0  0  0  0
   59.7102  -74.5639  -14.1980 O   0  0  0  0  0  0  0  0  0  0  0  0
   59.6109  -76.3838  -15.9762 C   0  0  0  0  0  0  0  0  0  0  0  0
   60.1392  -77.5779  -16.4287 C   0  0  0  0  0  0  0  0  0  0  0  0
   60.0854  -77.8924  -17.7739 C   0  0  0  0  0  0  0  0  0  0  0  0
   59.5036  -77.0125  -18.6671 C   0  0  0  0  0  0  0  0  0  0  0  0
   58.9751  -75.8175  -18.2159 C   0  0  0  0  0  0  0  0  0  0  0  0
   59.0229  -75.5053  -16.8691 C   0  0  0  0  0  0  0  0  0  0  0  0
   58.3589  -74.0050  -16.3015 Cl  0  0  0  0  0  0  0  0  0  0  0  0
   68.3228  -74.5759  -13.3144 H   0  0  0  0  0  0  0  0  0  0  0  0
   68.1191  -73.4256  -14.6574 H   0  0  0  0  0  0  0  0  0  0  0  0
   67.0645  -73.3201  -13.2274 H   0  0  0  0  0  0  0  0  0  0  0  0
   66.5566  -75.9563  -19.4591 H   0  0  0  0  0  0  0  0  0  0  0  0
   65.4063  -75.0636  -18.4352 H   0  0  0  0  0  0  0  0  0  0  0  0
   67.1539  -74.9525  -18.1160 H   0  0  0  0  0  0  0  0  0  0  0  0
   63.5320  -76.9527  -12.9843 H   0  0  0  0  0  0  0  0  0  0  0  0
   61.1981  -77.0396  -12.8951 H   0  0  0  0  0  0  0  0  0  0  0  0
   60.5946  -78.2654  -15.7313 H   0  0  0  0  0  0  0  0  0  0  0  0
   60.4984  -78.8257  -18.1271 H   0  0  0  0  0  0  0  0  0  0  0  0
   59.4621  -77.2586  -19.7180 H   0  0  0  0  0  0  0  0  0  0  0  0
   58.5212  -75.1298  -18.9140 H   0  0  0  0  0  0  0  0  0  0  0  0
  1  2  1  0  0  0  0
  2  3  2  0  0  0  0
  3  4  1  0  0  0  0
  4  5  2  0  0  0  0
  5  6  1  0  0  0  0
  6  7  2  0  0  0  0
  2  7  1  0  0  0  0
  6  8  1  0  0  0  0
  8  9  1  0  0  0  0
  4 10  1  0  0  0  0
 10 11  1  0  0  0  0
 11 12  2  0  0  0  0
 11 13  1  0  0  0  0
 13 14  1  0  0  0  0
 14 15  2  0  0  0  0
 14 16  2  0  0  0  0
 14 17  1  0  0  0  0
 17 18  2  0  0  0  0
 18 19  1  0  0  0  0
 19 20  2  0  0  0  0
 20 21  1  0  0  0  0
 21 22  2  0  0  0  0
 17 22  1  0  0  0  0
 22 23  1  0  0  0  0
  1 24  1  0  0  0  0
  1 25  1  0  0  0  0
  1 26  1  0  0  0  0
  9 27  1  0  0  0  0
  9 28  1  0  0  0  0
  9 29  1  0  0  0  0
 10 30  1  0  0  0  0
 13 31  1  0  0  0  0
 18 32  1  0  0  0  0
 19 33  1  0  0  0  0
 20 34  1  0  0  0  0
 21 35  1  0  0  0  0
M  END
> <Gold.Version>
2021.2.0

> <Gold.Id.Protein>
5K6Q|5K6Q_protein|mol2

> <Gold.PLP.Fitness>
29.0276

> <Gold.PLP.PLP>
-19.5049

> <Gold.PLP.part.hbond>
-5.0000

> <Gold.PLP.part.metal>
0.0000

> <Gold.PLP.part.buried>
-5.2320

> <Gold.PLP.part.nonpolar>
-10.9410

> <Gold.PLP.part.repulsive>
0.4796

> <Gold.PLP.ligand.clash>
0.0000

> <Gold.PLP.ligand.torsion>
2.2945

> <Gold.PLP.Chemscore.Hbond>
3.6113

> <Gold.PLP.Chemscore.CHOScore>
0.0000

> <Gold.PLP.Chemscore.Metal>
0.0000

> <Gold.Chemscore.Hbonds>
donor molecule, donor type, donor heavy atom, donor atom, acceptor molecule, acceptor atom, score
      L1  H    10    30       P1  2230  0.94
      L1  H    13    31       P1  2230  0.86
      P1  H  2203  7120       L1    16  1.00
      P1  H  4717  8548       L1     8  0.82

> <Gold.PLP.Chemscore.Internal.Correction>
3.2778

> <Gold.Protein.RotatedTorsions>
[ 5877 1703 1702 1700 ] final -123.07 input   60.01 | X-H torsion
[ 6057 1881 1880 1877 ] final -152.76 input   60.00 | X-H torsion
[ 7193 2255 2254 2251 ] final   97.57 input   60.00 | X-H torsion
[ 7182 2269 2268 2267 ] final   46.38 input   59.99 | X-H torsion
[ 6931 4361 4360 4357 ] final  168.39 input   60.01 | X-H torsion
[ 8180 4471 4470 4468 ] final   81.78 input   60.00 | X-H torsion
[ 8184 4473 4472 4470 ] final  123.05 input   60.00 | X-H torsion
[ 8203 4505 4504 4503 ] final -146.11 input   60.00 | X-H torsion
[ 8212 4507 4506 4504 ] final   22.68 input   60.00 | X-H torsion
[ 8221 4509 4508 4506 ] final  177.87 input   60.00 | X-H torsion

> <Gold.Protein.ActiveResidues>
 TYR305  THR331  LEU332  MET333  LEU349  GLY350  MET351  HIS352  GLY353  ASN358 
 VAL372  ARG373  PHE374  ASP375  ASP376  ARG377  VAL378  THR379  GLY380  LYS381 
 LEU382  PHE385  ASN404  GLY508  GLY509  TRP574  ILE651  PRO652  SER653  GLY654 
 GLY655  FAD702  HOH839  HOH865  HOH881  HOH913  HOH945  HOH958  HOH960  HOH966 
 HOH968 

> <Gold.Protein.RotatedAtoms>
   59.4684  -73.4314   -3.6670 H   0  0  0  0  0  0  0  0  0  0  0  0  # atno 5877 bound_to 1703
   61.3549  -67.9663   -4.8341 H   0  0  0  0  0  0  0  0  0  0  0  0  # atno 6057 bound_to 1881
   69.3479  -81.4927  -12.9088 H   0  0  0  0  0  0  0  0  0  0  0  0  # atno 6931 bound_to 4361
   63.5349  -90.3091   -1.9809 H   0  0  0  0  0  0  0  0  0  0  0  0  # atno 7182 bound_to 2269
   62.5787  -89.5094   -0.8884 H   0  0  0  0  0  0  0  0  0  0  0  0  # atno 7183 bound_to 2269
   61.8843  -90.3906   -2.1085 H   0  0  0  0  0  0  0  0  0  0  0  0  # atno 7184 bound_to 2269
   61.3005  -81.1120   -5.4036 H   0  0  0  0  0  0  0  0  0  0  0  0  # atno 7193 bound_to 2255
   52.4010  -69.3461   -7.1030 H   0  0  0  0  0  0  0  0  0  0  0  0  # atno 8180 bound_to 4471
   50.7428  -67.4859   -7.5901 H   0  0  0  0  0  0  0  0  0  0  0  0  # atno 8184 bound_to 4473
   63.4555  -72.5969  -11.7633 H   0  0  0  0  0  0  0  0  0  0  0  0  # atno 8203 bound_to 4505
   63.7949  -69.9046  -11.5369 H   0  0  0  0  0  0  0  0  0  0  0  0  # atno 8212 bound_to 4507
   62.8325  -71.4580   -6.8919 H   0  0  0  0  0  0  0  0  0  0  0  0  # atno 8221 bound_to 4509
   60.5398  -74.4863   -3.0447 LP  0  0  0  0  0  0  0  0  0  0  0  0  # atno 9612 bound_to 1703
   61.0284  -72.9977   -3.5052 LP  0  0  0  0  0  0  0  0  0  0  0  0  # atno 9613 bound_to 1703
   62.6481  -67.4294   -5.6633 LP  0  0  0  0  0  0  0  0  0  0  0  0  # atno 9616 bound_to 1881
   62.4125  -66.9582   -4.1176 LP  0  0  0  0  0  0  0  0  0  0  0  0  # atno 9617 bound_to 1881
   62.0922  -79.7862   -5.9169 LP  0  0  0  0  0  0  0  0  0  0  0  0  # atno 9661 bound_to 2255
   60.4651  -79.7673   -5.7802 LP  0  0  0  0  0  0  0  0  0  0  0  0  # atno 9662 bound_to 2255
   70.0944  -81.1539  -11.5030 LP  0  0  0  0  0  0  0  0  0  0  0  0  # atno 9687 bound_to 4361
   68.4869  -80.9112  -11.6563 LP  0  0  0  0  0  0  0  0  0  0  0  0  # atno 9688 bound_to 4361
   53.8120  -70.0806   -7.4457 LP  0  0  0  0  0  0  0  0  0  0  0  0  # atno 9695 bound_to 4471
   52.6855  -69.8855   -8.6117 LP  0  0  0  0  0  0  0  0  0  0  0  0  # atno 9696 bound_to 4471
   51.4131  -68.6347   -8.5276 LP  0  0  0  0  0  0  0  0  0  0  0  0  # atno 9697 bound_to 4473
   51.0074  -67.1883   -9.1679 LP  0  0  0  0  0  0  0  0  0  0  0  0  # atno 9698 bound_to 4473
   64.8676  -73.2820  -11.3334 LP  0  0  0  0  0  0  0  0  0  0  0  0  # atno 9706 bound_to 4505
   64.8573  -71.8543  -12.1260 LP  0  0  0  0  0  0  0  0  0  0  0  0  # atno 9707 bound_to 4505
   63.3303  -69.0255  -10.2488 LP  0  0  0  0  0  0  0  0  0  0  0  0  # atno 9708 bound_to 4507
   62.2148  -69.6009  -11.2934 LP  0  0  0  0  0  0  0  0  0  0  0  0  # atno 9709 bound_to 4507
   63.9275  -71.9983   -7.9676 LP  0  0  0  0  0  0  0  0  0  0  0  0  # atno 9710 bound_to 4509
   62.3641  -72.4535   -8.0909 LP  0  0  0  0  0  0  0  0  0  0  0  0  # atno 9711 bound_to 4509

$$$$
