C12H12ClN5O4S|Chlorsulfuron|mol|1|dock19
  -GOLD-   2292221533D 1   1.00000     0.00000
 
 35 36  0  0  0  0  0  0  0  0  1 V2000
   63.4878  -74.8673  -18.4141 C   0  0  0  0  0  0  0  0  0  0  0  0
   63.9189  -75.1060  -16.9898 C   0  0  0  0  0  0  0  0  0  0  0  0
   63.0740  -75.6412  -16.1263 N   0  0  0  0  0  0  0  0  0  0  0  0
   63.4517  -75.8530  -14.8687 C   0  0  0  0  0  0  0  0  0  0  0  0
   64.6792  -75.5259  -14.4820 N   0  0  0  0  0  0  0  0  0  0  0  0
   65.5248  -74.9886  -15.3522 C   0  0  0  0  0  0  0  0  0  0  0  0
   65.1431  -74.7845  -16.6086 N   0  0  0  0  0  0  0  0  0  0  0  0
   66.7763  -74.6535  -14.9617 O   0  0  0  0  0  0  0  0  0  0  0  0
   66.6384  -73.6907  -13.9148 C   0  0  0  0  0  0  0  0  0  0  0  0
   62.5656  -76.4137  -13.9634 N   0  0  0  0  0  0  0  0  0  0  0  0
   61.2394  -76.2270  -14.1147 C   0  0  0  0  0  0  0  0  0  0  0  0
   60.8209  -75.5665  -15.0455 O   0  0  0  0  0  0  0  0  0  0  0  0
   60.3773  -76.7724  -13.2339 N   0  0  0  0  0  0  0  0  0  0  0  0
   58.7587  -76.4403  -13.3455 S   0  0  0  0  0  0  0  0  0  0  0  0
   58.1798  -76.9329  -12.1450 O   0  0  0  0  0  0  0  0  0  0  0  0
   58.6708  -75.1008  -13.8118 O   0  0  0  0  0  0  0  0  0  0  0  0
   58.1035  -77.4414  -14.6389 C   0  0  0  0  0  0  0  0  0  0  0  0
   58.0448  -76.9516  -15.9298 C   0  0  0  0  0  0  0  0  0  0  0  0
   57.5306  -77.7369  -16.9448 C   0  0  0  0  0  0  0  0  0  0  0  0
   57.0745  -79.0122  -16.6691 C   0  0  0  0  0  0  0  0  0  0  0  0
   57.1322  -79.5032  -15.3781 C   0  0  0  0  0  0  0  0  0  0  0  0
   57.6526  -78.7202  -14.3633 C   0  0  0  0  0  0  0  0  0  0  0  0
   57.7259  -79.3363  -12.7420 Cl  0  0  0  0  0  0  0  0  0  0  0  0
   63.0527  -73.8717  -18.5000 H   0  0  0  0  0  0  0  0  0  0  0  0
   64.3526  -74.9440  -19.0731 H   0  0  0  0  0  0  0  0  0  0  0  0
   62.7463  -75.6136  -18.6992 H   0  0  0  0  0  0  0  0  0  0  0  0
   67.6261  -73.3891  -13.5661 H   0  0  0  0  0  0  0  0  0  0  0  0
   66.1040  -72.8185  -14.2914 H   0  0  0  0  0  0  0  0  0  0  0  0
   66.0798  -74.1301  -13.0883 H   0  0  0  0  0  0  0  0  0  0  0  0
   62.8996  -76.9407  -13.2206 H   0  0  0  0  0  0  0  0  0  0  0  0
   60.7048  -77.3596  -12.5348 H   0  0  0  0  0  0  0  0  0  0  0  0
   58.4005  -75.9549  -16.1458 H   0  0  0  0  0  0  0  0  0  0  0  0
   57.4850  -77.3538  -17.9535 H   0  0  0  0  0  0  0  0  0  0  0  0
   56.6726  -79.6252  -17.4624 H   0  0  0  0  0  0  0  0  0  0  0  0
   56.7750  -80.4993  -15.1626 H   0  0  0  0  0  0  0  0  0  0  0  0
  1  2  1  0  0  0  0
  2  3  2  0  0  0  0
  3  4  1  0  0  0  0
  4  5  2  0  0  0  0
  5  6  1  0  0  0  0
  6  7  2  0  0  0  0
  2  7  1  0  0  0  0
  6  8  1  0  0  0  0
  8  9  1  0  0  0  0
  4 10  1  0  0  0  0
 10 11  1  0  0  0  0
 11 12  2  0  0  0  0
 11 13  1  0  0  0  0
 13 14  1  0  0  0  0
 14 15  2  0  0  0  0
 14 16  2  0  0  0  0
 14 17  1  0  0  0  0
 17 18  2  0  0  0  0
 18 19  1  0  0  0  0
 19 20  2  0  0  0  0
 20 21  1  0  0  0  0
 21 22  2  0  0  0  0
 17 22  1  0  0  0  0
 22 23  1  0  0  0  0
  1 24  1  0  0  0  0
  1 25  1  0  0  0  0
  1 26  1  0  0  0  0
  9 27  1  0  0  0  0
  9 28  1  0  0  0  0
  9 29  1  0  0  0  0
 10 30  1  0  0  0  0
 13 31  1  0  0  0  0
 18 32  1  0  0  0  0
 19 33  1  0  0  0  0
 20 34  1  0  0  0  0
 21 35  1  0  0  0  0
M  END
> <Gold.Version>
2021.2.0

> <Gold.Id.Protein>
5K6Q|5K6Q_protein|mol2

> <Gold.PLP.Fitness>
26.4693

> <Gold.PLP.PLP>
-18.8067

> <Gold.PLP.part.hbond>
-5.0000

> <Gold.PLP.part.metal>
0.0000

> <Gold.PLP.part.buried>
-4.7611

> <Gold.PLP.part.nonpolar>
-11.0358

> <Gold.PLP.part.repulsive>
0.6903

> <Gold.PLP.ligand.clash>
0.0000

> <Gold.PLP.ligand.torsion>
1.6355

> <Gold.PLP.Chemscore.Hbond>
2.5543

> <Gold.PLP.Chemscore.CHOScore>
0.0000

> <Gold.PLP.Chemscore.Metal>
0.0000

> <Gold.Chemscore.Hbonds>
donor molecule, donor type, donor heavy atom, donor atom, acceptor molecule, acceptor atom, score
      L1  H    10    30       P1  2230  0.94
      L1  H    13    31       P1  2230  0.74
      P1  H  2203  7120       L1    16  0.85
      P1  H  4670  8503       L1    15  0.02

> <Gold.PLP.Chemscore.Internal.Correction>
3.2706

> <Gold.Protein.RotatedTorsions>
[ 5877 1703 1702 1700 ] final   48.57 input   60.01 | X-H torsion
[ 6057 1881 1880 1877 ] final  -42.97 input   60.00 | X-H torsion
[ 7193 2255 2254 2251 ] final   82.03 input   60.00 | X-H torsion
[ 7182 2269 2268 2267 ] final   48.62 input   59.99 | X-H torsion
[ 6931 4361 4360 4357 ] final -128.91 input   60.01 | X-H torsion
[ 8180 4471 4470 4468 ] final  -95.56 input   60.00 | X-H torsion
[ 8184 4473 4472 4470 ] final  -13.62 input   60.00 | X-H torsion
[ 8203 4505 4504 4503 ] final -173.94 input   60.00 | X-H torsion
[ 8212 4507 4506 4504 ] final  -28.73 input   60.00 | X-H torsion
[ 8221 4509 4508 4506 ] final  159.19 input   60.00 | X-H torsion

> <Gold.Protein.ActiveResidues>
 TYR305  THR331  LEU332  MET333  LEU349  GLY350  MET351  HIS352  GLY353  ASN358 
 VAL372  ARG373  PHE374  ASP375  ASP376  ARG377  VAL378  THR379  GLY380  LYS381 
 LEU382  PHE385  ASN404  GLY508  GLY509  TRP574  ILE651  PRO652  SER653  GLY654 
 GLY655  FAD702  HOH839  HOH865  HOH881  HOH913  HOH945  HOH958  HOH960  HOH966 
 HOH968 

> <Gold.Protein.RotatedAtoms>
   61.2494  -73.7172   -3.1838 H   0  0  0  0  0  0  0  0  0  0  0  0  # atno 5877 bound_to 1703
   62.2755  -67.0259   -4.0498 H   0  0  0  0  0  0  0  0  0  0  0  0  # atno 6057 bound_to 1881
   68.5082  -81.2042  -12.5081 H   0  0  0  0  0  0  0  0  0  0  0  0  # atno 6931 bound_to 4361
   63.5499  -90.2890   -1.9532 H   0  0  0  0  0  0  0  0  0  0  0  0  # atno 7182 bound_to 2269
   62.5416  -89.5116   -0.8919 H   0  0  0  0  0  0  0  0  0  0  0  0  # atno 7183 bound_to 2269
   61.9064  -90.4084   -2.1327 H   0  0  0  0  0  0  0  0  0  0  0  0  # atno 7184 bound_to 2269
   61.5499  -81.0825   -5.4354 H   0  0  0  0  0  0  0  0  0  0  0  0  # atno 7193 bound_to 2255
   53.5594  -70.1954   -8.3033 H   0  0  0  0  0  0  0  0  0  0  0  0  # atno 8180 bound_to 4471
   51.4419  -68.5430   -8.7825 H   0  0  0  0  0  0  0  0  0  0  0  0  # atno 8184 bound_to 4473
   63.5665  -72.9767  -11.5484 H   0  0  0  0  0  0  0  0  0  0  0  0  # atno 8203 bound_to 4505
   64.0388  -69.4992  -10.8767 H   0  0  0  0  0  0  0  0  0  0  0  0  # atno 8212 bound_to 4507
   63.1305  -71.4012   -6.9091 H   0  0  0  0  0  0  0  0  0  0  0  0  # atno 8221 bound_to 4509
   60.0180  -72.8356   -3.7793 LP  0  0  0  0  0  0  0  0  0  0  0  0  # atno 9612 bound_to 1703
   59.7565  -74.3606   -3.2572 LP  0  0  0  0  0  0  0  0  0  0  0  0  # atno 9613 bound_to 1703
   61.3847  -68.0080   -4.9933 LP  0  0  0  0  0  0  0  0  0  0  0  0  # atno 9616 bound_to 1881
   62.7489  -67.3265   -5.5775 LP  0  0  0  0  0  0  0  0  0  0  0  0  # atno 9617 bound_to 1881
   61.9335  -79.5932   -5.9672 LP  0  0  0  0  0  0  0  0  0  0  0  0  # atno 9661 bound_to 2255
   60.3726  -79.9902   -5.6979 LP  0  0  0  0  0  0  0  0  0  0  0  0  # atno 9662 bound_to 2255
   70.1119  -81.4694  -12.4317 LP  0  0  0  0  0  0  0  0  0  0  0  0  # atno 9687 bound_to 4361
   69.3150  -80.8862  -11.1311 LP  0  0  0  0  0  0  0  0  0  0  0  0  # atno 9688 bound_to 4361
   52.1257  -69.4751   -8.0317 LP  0  0  0  0  0  0  0  0  0  0  0  0  # atno 9695 bound_to 4471
   53.2052  -69.6357   -6.8169 LP  0  0  0  0  0  0  0  0  0  0  0  0  # atno 9696 bound_to 4471
   50.8976  -67.0223   -8.9806 LP  0  0  0  0  0  0  0  0  0  0  0  0  # atno 9697 bound_to 4473
   50.8188  -67.7362   -7.5140 LP  0  0  0  0  0  0  0  0  0  0  0  0  # atno 9698 bound_to 4473
   65.1921  -73.0001  -11.4778 LP  0  0  0  0  0  0  0  0  0  0  0  0  # atno 9706 bound_to 4505
   64.4210  -71.7537  -12.1980 LP  0  0  0  0  0  0  0  0  0  0  0  0  # atno 9707 bound_to 4505
   62.5339  -69.0706  -10.4299 LP  0  0  0  0  0  0  0  0  0  0  0  0  # atno 9708 bound_to 4507
   62.7655  -69.9641  -11.7771 LP  0  0  0  0  0  0  0  0  0  0  0  0  # atno 9709 bound_to 4507
   63.7943  -72.1812   -8.1737 LP  0  0  0  0  0  0  0  0  0  0  0  0  # atno 9710 bound_to 4509
   62.1971  -72.3278   -7.8674 LP  0  0  0  0  0  0  0  0  0  0  0  0  # atno 9711 bound_to 4509

$$$$
