C12H12ClN5O4S|Chlorsulfuron|mol|1|dock31
  -GOLD-   2292221533D 1   1.00000     0.00000
 
 35 36  0  0  0  0  0  0  0  0  1 V2000
   58.7683  -77.3688  -17.6954 C   0  0  0  0  0  0  0  0  0  0  0  0
   59.5327  -76.9006  -16.4839 C   0  0  0  0  0  0  0  0  0  0  0  0
   60.5455  -77.6155  -16.0267 N   0  0  0  0  0  0  0  0  0  0  0  0
   61.2219  -77.2046  -14.9576 C   0  0  0  0  0  0  0  0  0  0  0  0
   60.8779  -76.0749  -14.3504 N   0  0  0  0  0  0  0  0  0  0  0  0
   59.8602  -75.3598  -14.8126 C   0  0  0  0  0  0  0  0  0  0  0  0
   59.1919  -75.7729  -15.8843 N   0  0  0  0  0  0  0  0  0  0  0  0
   59.5065  -74.2084  -14.1962 O   0  0  0  0  0  0  0  0  0  0  0  0
   59.6955  -73.1568  -15.1451 C   0  0  0  0  0  0  0  0  0  0  0  0
   62.2834  -77.9545  -14.4781 N   0  0  0  0  0  0  0  0  0  0  0  0
   63.1120  -78.5773  -15.3396 C   0  0  0  0  0  0  0  0  0  0  0  0
   62.9278  -78.4810  -16.5373 O   0  0  0  0  0  0  0  0  0  0  0  0
   64.1448  -79.3070  -14.8731 N   0  0  0  0  0  0  0  0  0  0  0  0
   65.0870  -80.1741  -15.9232 S   0  0  0  0  0  0  0  0  0  0  0  0
   65.4291  -79.2742  -16.9683 O   0  0  0  0  0  0  0  0  0  0  0  0
   66.0136  -80.8849  -15.1136 O   0  0  0  0  0  0  0  0  0  0  0  0
   64.0600  -81.3994  -16.6636 C   0  0  0  0  0  0  0  0  0  0  0  0
   64.0371  -81.5437  -18.0378 C   0  0  0  0  0  0  0  0  0  0  0  0
   63.2312  -82.5050  -18.6190 C   0  0  0  0  0  0  0  0  0  0  0  0
   62.4476  -83.3222  -17.8260 C   0  0  0  0  0  0  0  0  0  0  0  0
   62.4693  -83.1786  -16.4513 C   0  0  0  0  0  0  0  0  0  0  0  0
   63.2803  -82.2212  -15.8689 C   0  0  0  0  0  0  0  0  0  0  0  0
   63.3085  -82.0407  -14.1425 Cl  0  0  0  0  0  0  0  0  0  0  0  0
   57.9409  -78.0042  -17.3798 H   0  0  0  0  0  0  0  0  0  0  0  0
   58.3783  -76.5057  -18.2349 H   0  0  0  0  0  0  0  0  0  0  0  0
   59.4329  -77.9352  -18.3478 H   0  0  0  0  0  0  0  0  0  0  0  0
   59.4218  -72.2043  -14.6913 H   0  0  0  0  0  0  0  0  0  0  0  0
   60.7414  -73.1267  -15.4505 H   0  0  0  0  0  0  0  0  0  0  0  0
   59.0674  -73.3374  -16.0175 H   0  0  0  0  0  0  0  0  0  0  0  0
   62.4304  -78.0314  -13.5224 H   0  0  0  0  0  0  0  0  0  0  0  0
   64.3361  -79.3240  -13.9223 H   0  0  0  0  0  0  0  0  0  0  0  0
   64.6486  -80.9050  -18.6579 H   0  0  0  0  0  0  0  0  0  0  0  0
   63.2136  -82.6174  -19.6930 H   0  0  0  0  0  0  0  0  0  0  0  0
   61.8180  -84.0728  -18.2806 H   0  0  0  0  0  0  0  0  0  0  0  0
   61.8564  -83.8166  -15.8319 H   0  0  0  0  0  0  0  0  0  0  0  0
  1  2  1  0  0  0  0
  2  3  2  0  0  0  0
  3  4  1  0  0  0  0
  4  5  2  0  0  0  0
  5  6  1  0  0  0  0
  6  7  2  0  0  0  0
  2  7  1  0  0  0  0
  6  8  1  0  0  0  0
  8  9  1  0  0  0  0
  4 10  1  0  0  0  0
 10 11  1  0  0  0  0
 11 12  2  0  0  0  0
 11 13  1  0  0  0  0
 13 14  1  0  0  0  0
 14 15  2  0  0  0  0
 14 16  2  0  0  0  0
 14 17  1  0  0  0  0
 17 18  2  0  0  0  0
 18 19  1  0  0  0  0
 19 20  2  0  0  0  0
 20 21  1  0  0  0  0
 21 22  2  0  0  0  0
 17 22  1  0  0  0  0
 22 23  1  0  0  0  0
  1 24  1  0  0  0  0
  1 25  1  0  0  0  0
  1 26  1  0  0  0  0
  9 27  1  0  0  0  0
  9 28  1  0  0  0  0
  9 29  1  0  0  0  0
 10 30  1  0  0  0  0
 13 31  1  0  0  0  0
 18 32  1  0  0  0  0
 19 33  1  0  0  0  0
 20 34  1  0  0  0  0
 21 35  1  0  0  0  0
M  END
> <Gold.Version>
2021.2.0

> <Gold.Id.Protein>
5K6Q|5K6Q_protein|mol2

> <Gold.PLP.Fitness>
29.9615

> <Gold.PLP.PLP>
-15.8064

> <Gold.PLP.part.hbond>
-7.0380

> <Gold.PLP.part.metal>
0.0000

> <Gold.PLP.part.buried>
-4.3119

> <Gold.PLP.part.nonpolar>
-5.6133

> <Gold.PLP.part.repulsive>
0.4879

> <Gold.PLP.ligand.clash>
0.0000

> <Gold.PLP.ligand.torsion>
1.8959

> <Gold.PLP.Chemscore.Hbond>
4.8921

> <Gold.PLP.Chemscore.CHOScore>
0.0000

> <Gold.PLP.Chemscore.Metal>
0.0000

> <Gold.Chemscore.Hbonds>
donor molecule, donor type, donor heavy atom, donor atom, acceptor molecule, acceptor atom, score
      L1  H    10    30       P1  2230  0.89
      L1  H    13    31       P1  2231  1.00
      P1  H  2203  7120       L1     8  1.00
      P1  H  2242  7198       L1    16  1.00
      P1  H  4723  8580       L1    16  1.00

> <Gold.PLP.Chemscore.Internal.Correction>
3.2706

> <Gold.Protein.RotatedTorsions>
[ 5877 1703 1702 1700 ] final  -34.80 input   60.01 | X-H torsion
[ 6057 1881 1880 1877 ] final   54.54 input   60.00 | X-H torsion
[ 7193 2255 2254 2251 ] final -174.85 input   60.00 | X-H torsion
[ 7182 2269 2268 2267 ] final  -24.61 input   59.99 | X-H torsion
[ 6931 4361 4360 4357 ] final   34.19 input   60.01 | X-H torsion
[ 8180 4471 4470 4468 ] final  125.76 input   60.00 | X-H torsion
[ 8184 4473 4472 4470 ] final -163.49 input   60.00 | X-H torsion
[ 8203 4505 4504 4503 ] final  102.31 input   60.00 | X-H torsion
[ 8212 4507 4506 4504 ] final -102.48 input   60.00 | X-H torsion
[ 8221 4509 4508 4506 ] final   -6.29 input   60.00 | X-H torsion

> <Gold.Protein.ActiveResidues>
 TYR305  THR331  LEU332  MET333  LEU349  GLY350  MET351  HIS352  GLY353  ASN358 
 VAL372  ARG373  PHE374  ASP375  ASP376  ARG377  VAL378  THR379  GLY380  LYS381 
 LEU382  PHE385  ASN404  GLY508  GLY509  TRP574  ILE651  PRO652  SER653  GLY654 
 GLY655  FAD702  HOH839  HOH865  HOH881  HOH913  HOH945  HOH958  HOH960  HOH966 
 HOH968 

> <Gold.Protein.RotatedAtoms>
   60.5967  -72.7782   -3.6766 H   0  0  0  0  0  0  0  0  0  0  0  0  # atno 5877 bound_to 1703
   62.8950  -67.1222   -5.3104 H   0  0  0  0  0  0  0  0  0  0  0  0  # atno 6057 bound_to 1881
   69.9436  -81.0756  -11.3446 H   0  0  0  0  0  0  0  0  0  0  0  0  # atno 6931 bound_to 4361
   62.5700  -90.6287   -2.4299 H   0  0  0  0  0  0  0  0  0  0  0  0  # atno 7182 bound_to 2269
   63.5385  -89.8426   -1.3383 H   0  0  0  0  0  0  0  0  0  0  0  0  # atno 7183 bound_to 2269
   61.8894  -89.7375   -1.2092 H   0  0  0  0  0  0  0  0  0  0  0  0  # atno 7184 bound_to 2269
   60.3547  -80.2502   -5.6073 H   0  0  0  0  0  0  0  0  0  0  0  0  # atno 7193 bound_to 2255
   52.1108  -69.3868   -7.7400 H   0  0  0  0  0  0  0  0  0  0  0  0  # atno 8180 bound_to 4471
   50.7432  -66.8931   -8.5399 H   0  0  0  0  0  0  0  0  0  0  0  0  # atno 8184 bound_to 4473
   64.7408  -73.3309  -11.3083 H   0  0  0  0  0  0  0  0  0  0  0  0  # atno 8203 bound_to 4505
   63.2459  -69.0171  -10.2432 H   0  0  0  0  0  0  0  0  0  0  0  0  # atno 8212 bound_to 4507
   63.1830  -72.4946   -8.4098 H   0  0  0  0  0  0  0  0  0  0  0  0  # atno 8221 bound_to 4509
   59.4460  -73.9138   -3.4917 LP  0  0  0  0  0  0  0  0  0  0  0  0  # atno 9612 bound_to 1703
   60.9859  -74.2280   -3.0485 LP  0  0  0  0  0  0  0  0  0  0  0  0  # atno 9613 bound_to 1703
   61.9633  -67.2043   -3.9787 LP  0  0  0  0  0  0  0  0  0  0  0  0  # atno 9616 bound_to 1881
   61.5465  -68.0332   -5.3226 LP  0  0  0  0  0  0  0  0  0  0  0  0  # atno 9617 bound_to 1881
   61.8019  -80.9854   -5.4923 LP  0  0  0  0  0  0  0  0  0  0  0  0  # atno 9661 bound_to 2255
   61.7079  -79.4361   -5.9997 LP  0  0  0  0  0  0  0  0  0  0  0  0  # atno 9662 bound_to 2255
   68.4064  -80.9676  -11.8676 LP  0  0  0  0  0  0  0  0  0  0  0  0  # atno 9687 bound_to 4361
   69.5750  -81.5175  -12.8668 LP  0  0  0  0  0  0  0  0  0  0  0  0  # atno 9688 bound_to 4361
   53.4583  -69.7770   -6.9153 LP  0  0  0  0  0  0  0  0  0  0  0  0  # atno 9695 bound_to 4471
   53.3315  -70.1481   -8.5005 LP  0  0  0  0  0  0  0  0  0  0  0  0  # atno 9696 bound_to 4471
   51.0067  -68.1798   -7.5792 LP  0  0  0  0  0  0  0  0  0  0  0  0  # atno 9697 bound_to 4473
   51.4134  -68.2403   -9.1596 LP  0  0  0  0  0  0  0  0  0  0  0  0  # atno 9698 bound_to 4473
   64.9723  -71.9199  -12.0853 LP  0  0  0  0  0  0  0  0  0  0  0  0  # atno 9706 bound_to 4505
   63.4583  -72.4771  -11.8323 LP  0  0  0  0  0  0  0  0  0  0  0  0  # atno 9707 bound_to 4505
   62.2429  -69.6463  -11.3595 LP  0  0  0  0  0  0  0  0  0  0  0  0  # atno 9708 bound_to 4507
   63.8550  -69.8739  -11.4854 LP  0  0  0  0  0  0  0  0  0  0  0  0  # atno 9709 bound_to 4507
   62.1765  -71.8987   -7.2784 LP  0  0  0  0  0  0  0  0  0  0  0  0  # atno 9710 bound_to 4509
   63.7621  -71.5092   -7.2515 LP  0  0  0  0  0  0  0  0  0  0  0  0  # atno 9711 bound_to 4509

$$$$
