C12H12ClN5O4S|Chlorsulfuron|mol|1|dock15
  -GOLD-   2292221533D 1   1.00000     0.00000
 
 35 36  0  0  0  0  0  0  0  0  1 V2000
   57.7174  -78.2814  -16.1522 C   0  0  0  0  0  0  0  0  0  0  0  0
   58.7983  -77.4870  -15.4654 C   0  0  0  0  0  0  0  0  0  0  0  0
   59.9380  -78.0701  -15.1384 N   0  0  0  0  0  0  0  0  0  0  0  0
   60.8938  -77.3714  -14.5321 C   0  0  0  0  0  0  0  0  0  0  0  0
   60.7011  -76.0870  -14.2559 N   0  0  0  0  0  0  0  0  0  0  0  0
   59.5551  -75.5050  -14.5859 C   0  0  0  0  0  0  0  0  0  0  0  0
   58.6062  -76.2071  -15.1963 N   0  0  0  0  0  0  0  0  0  0  0  0
   59.3549  -74.1965  -14.3055 O   0  0  0  0  0  0  0  0  0  0  0  0
   59.2286  -73.5203  -15.5580 C   0  0  0  0  0  0  0  0  0  0  0  0
   62.0885  -77.9831  -14.1890 N   0  0  0  0  0  0  0  0  0  0  0  0
   62.9221  -78.4218  -15.1528 C   0  0  0  0  0  0  0  0  0  0  0  0
   62.6257  -78.2809  -16.3233 O   0  0  0  0  0  0  0  0  0  0  0  0
   64.0844  -79.0170  -14.8190 N   0  0  0  0  0  0  0  0  0  0  0  0
   65.0493  -79.6684  -15.9968 S   0  0  0  0  0  0  0  0  0  0  0  0
   65.3770  -78.5932  -16.8660 O   0  0  0  0  0  0  0  0  0  0  0  0
   65.9870  -80.4912  -15.3163 O   0  0  0  0  0  0  0  0  0  0  0  0
   64.0514  -80.7658  -16.9480 C   0  0  0  0  0  0  0  0  0  0  0  0
   64.0547  -80.6828  -18.3274 C   0  0  0  0  0  0  0  0  0  0  0  0
   63.2717  -81.5437  -19.0739 C   0  0  0  0  0  0  0  0  0  0  0  0
   62.4848  -82.4875  -18.4410 C   0  0  0  0  0  0  0  0  0  0  0  0
   62.4803  -82.5712  -17.0612 C   0  0  0  0  0  0  0  0  0  0  0  0
   63.2685  -81.7144  -16.3140 C   0  0  0  0  0  0  0  0  0  0  0  0
   63.2638  -81.8193  -14.5812 Cl  0  0  0  0  0  0  0  0  0  0  0  0
   57.0637  -78.7286  -15.4035 H   0  0  0  0  0  0  0  0  0  0  0  0
   57.1350  -77.6218  -16.7957 H   0  0  0  0  0  0  0  0  0  0  0  0
   58.1717  -79.0682  -16.7544 H   0  0  0  0  0  0  0  0  0  0  0  0
   59.0650  -72.4571  -15.3820 H   0  0  0  0  0  0  0  0  0  0  0  0
   60.1414  -73.6564  -16.1380 H   0  0  0  0  0  0  0  0  0  0  0  0
   58.3831  -73.9316  -16.1094 H   0  0  0  0  0  0  0  0  0  0  0  0
   62.3251  -78.0956  -13.2550 H   0  0  0  0  0  0  0  0  0  0  0  0
   64.3558  -79.0636  -13.8890 H   0  0  0  0  0  0  0  0  0  0  0  0
   64.6688  -79.9450  -18.8224 H   0  0  0  0  0  0  0  0  0  0  0  0
   63.2745  -81.4785  -20.1519 H   0  0  0  0  0  0  0  0  0  0  0  0
   61.8731  -83.1595  -19.0247 H   0  0  0  0  0  0  0  0  0  0  0  0
   61.8648  -83.3082  -16.5668 H   0  0  0  0  0  0  0  0  0  0  0  0
  1  2  1  0  0  0  0
  2  3  2  0  0  0  0
  3  4  1  0  0  0  0
  4  5  2  0  0  0  0
  5  6  1  0  0  0  0
  6  7  2  0  0  0  0
  2  7  1  0  0  0  0
  6  8  1  0  0  0  0
  8  9  1  0  0  0  0
  4 10  1  0  0  0  0
 10 11  1  0  0  0  0
 11 12  2  0  0  0  0
 11 13  1  0  0  0  0
 13 14  1  0  0  0  0
 14 15  2  0  0  0  0
 14 16  2  0  0  0  0
 14 17  1  0  0  0  0
 17 18  2  0  0  0  0
 18 19  1  0  0  0  0
 19 20  2  0  0  0  0
 20 21  1  0  0  0  0
 21 22  2  0  0  0  0
 17 22  1  0  0  0  0
 22 23  1  0  0  0  0
  1 24  1  0  0  0  0
  1 25  1  0  0  0  0
  1 26  1  0  0  0  0
  9 27  1  0  0  0  0
  9 28  1  0  0  0  0
  9 29  1  0  0  0  0
 10 30  1  0  0  0  0
 13 31  1  0  0  0  0
 18 32  1  0  0  0  0
 19 33  1  0  0  0  0
 20 34  1  0  0  0  0
 21 35  1  0  0  0  0
M  END
> <Gold.Version>
2021.2.0

> <Gold.Id.Protein>
5K6Q|5K6Q_protein|mol2

> <Gold.PLP.Fitness>
27.6146

> <Gold.PLP.PLP>
-15.3006

> <Gold.PLP.part.hbond>
-8.0280

> <Gold.PLP.part.metal>
0.0000

> <Gold.PLP.part.buried>
-3.3501

> <Gold.PLP.part.nonpolar>
-5.0839

> <Gold.PLP.part.repulsive>
0.5213

> <Gold.PLP.ligand.clash>
0.0000

> <Gold.PLP.ligand.torsion>
2.2889

> <Gold.PLP.Chemscore.Hbond>
4.5380

> <Gold.PLP.Chemscore.CHOScore>
0.0000

> <Gold.PLP.Chemscore.Metal>
0.0000

> <Gold.Chemscore.Hbonds>
donor molecule, donor type, donor heavy atom, donor atom, acceptor molecule, acceptor atom, score
      L1  H    10    30       P1  2230  0.85
      L1  H    13    31       P1  2231  0.94
      P1  H  2203  7120       L1     8  0.96
      P1  H  2242  7198       L1    16  0.78
      P1  H  4723  8580       L1    16  1.00

> <Gold.PLP.Chemscore.Internal.Correction>
3.2778

> <Gold.Protein.RotatedTorsions>
[ 5877 1703 1702 1700 ] final  -44.24 input   60.01 | X-H torsion
[ 6057 1881 1880 1877 ] final -179.13 input   60.00 | X-H torsion
[ 7193 2255 2254 2251 ] final  -46.05 input   60.00 | X-H torsion
[ 7182 2269 2268 2267 ] final   53.87 input   59.99 | X-H torsion
[ 6931 4361 4360 4357 ] final  117.92 input   60.01 | X-H torsion
[ 8180 4471 4470 4468 ] final  -74.44 input   60.00 | X-H torsion
[ 8184 4473 4472 4470 ] final  111.36 input   60.00 | X-H torsion
[ 8203 4505 4504 4503 ] final   22.81 input   60.00 | X-H torsion
[ 8212 4507 4506 4504 ] final  170.85 input   60.00 | X-H torsion
[ 8221 4509 4508 4506 ] final   80.64 input   60.00 | X-H torsion

> <Gold.Protein.ActiveResidues>
 TYR305  THR331  LEU332  MET333  LEU349  GLY350  MET351  HIS352  GLY353  ASN358 
 VAL372  ARG373  PHE374  ASP375  ASP376  ARG377  VAL378  THR379  GLY380  LYS381 
 LEU382  PHE385  ASN404  GLY508  GLY509  TRP574  ILE651  PRO652  SER653  GLY654 
 GLY655  FAD702  HOH839  HOH865  HOH881  HOH913  HOH945  HOH958  HOH960  HOH966 
 HOH968 

> <Gold.Protein.RotatedAtoms>
   60.4484  -72.7603   -3.7146 H   0  0  0  0  0  0  0  0  0  0  0  0  # atno 5877 bound_to 1703
   61.4963  -68.0330   -5.2315 H   0  0  0  0  0  0  0  0  0  0  0  0  # atno 6057 bound_to 1881
   70.0449  -81.4893  -12.5194 H   0  0  0  0  0  0  0  0  0  0  0  0  # atno 6931 bound_to 4361
   63.5798  -90.2407   -1.8863 H   0  0  0  0  0  0  0  0  0  0  0  0  # atno 7182 bound_to 2269
   62.4552  -89.5203   -0.9046 H   0  0  0  0  0  0  0  0  0  0  0  0  # atno 7183 bound_to 2269
   61.9630  -90.4481   -2.1869 H   0  0  0  0  0  0  0  0  0  0  0  0  # atno 7184 bound_to 2269
   61.8277  -79.5145   -5.9817 H   0  0  0  0  0  0  0  0  0  0  0  0  # atno 7193 bound_to 2255
   53.7424  -70.2000   -8.0132 H   0  0  0  0  0  0  0  0  0  0  0  0  # atno 8180 bound_to 4471
   50.7964  -67.6599   -7.5331 H   0  0  0  0  0  0  0  0  0  0  0  0  # atno 8184 bound_to 4473
   65.3084  -72.4003  -11.8036 H   0  0  0  0  0  0  0  0  0  0  0  0  # atno 8203 bound_to 4505
   62.1997  -69.3536  -10.9091 H   0  0  0  0  0  0  0  0  0  0  0  0  # atno 8212 bound_to 4507
   63.9559  -71.7727   -7.6745 H   0  0  0  0  0  0  0  0  0  0  0  0  # atno 8221 bound_to 4509
   59.4948  -74.0479   -3.4307 LP  0  0  0  0  0  0  0  0  0  0  0  0  # atno 9612 bound_to 1703
   61.0864  -74.1120   -3.0713 LP  0  0  0  0  0  0  0  0  0  0  0  0  # atno 9613 bound_to 1703
   62.8678  -67.1728   -5.3971 LP  0  0  0  0  0  0  0  0  0  0  0  0  # atno 9616 bound_to 1881
   62.0504  -67.1476   -3.9836 LP  0  0  0  0  0  0  0  0  0  0  0  0  # atno 9617 bound_to 1881
   60.3507  -80.1140   -5.6547 LP  0  0  0  0  0  0  0  0  0  0  0  0  # atno 9661 bound_to 2255
   61.6757  -81.0484   -5.4602 LP  0  0  0  0  0  0  0  0  0  0  0  0  # atno 9662 bound_to 2255
   69.4255  -80.9066  -11.1320 LP  0  0  0  0  0  0  0  0  0  0  0  0  # atno 9687 bound_to 4361
   68.4540  -81.1619  -12.4194 LP  0  0  0  0  0  0  0  0  0  0  0  0  # atno 9688 bound_to 4361
   52.2564  -69.6123   -8.3205 LP  0  0  0  0  0  0  0  0  0  0  0  0  # atno 9695 bound_to 4471
   52.8902  -69.4939   -6.8202 LP  0  0  0  0  0  0  0  0  0  0  0  0  # atno 9696 bound_to 4471
   51.4371  -68.5821   -8.7108 LP  0  0  0  0  0  0  0  0  0  0  0  0  # atno 9697 bound_to 4473
   50.9294  -67.0658   -9.0421 LP  0  0  0  0  0  0  0  0  0  0  0  0  # atno 9698 bound_to 4473
   63.7677  -71.9699  -12.1022 LP  0  0  0  0  0  0  0  0  0  0  0  0  # atno 9706 bound_to 4505
   64.0913  -73.3644  -11.3165 LP  0  0  0  0  0  0  0  0  0  0  0  0  # atno 9707 bound_to 4505
   63.4147  -70.0155  -11.7656 LP  0  0  0  0  0  0  0  0  0  0  0  0  # atno 9708 bound_to 4507
   63.7368  -69.1659  -10.4088 LP  0  0  0  0  0  0  0  0  0  0  0  0  # atno 9709 bound_to 4507
   62.6617  -72.5369   -8.2982 LP  0  0  0  0  0  0  0  0  0  0  0  0  # atno 9710 bound_to 4509
   62.4985  -71.5980   -6.9721 LP  0  0  0  0  0  0  0  0  0  0  0  0  # atno 9711 bound_to 4509

$$$$
