C12H12ClN5O4S|Chlorsulfuron|mol|1|dock37
  -GOLD-   2292221543D 1   1.00000     0.00000
 
 35 36  0  0  0  0  0  0  0  0  1 V2000
   59.8048  -81.6211  -14.2590 C   0  0  0  0  0  0  0  0  0  0  0  0
   61.0390  -82.0853  -13.5293 C   0  0  0  0  0  0  0  0  0  0  0  0
   60.9650  -82.4137  -12.2516 N   0  0  0  0  0  0  0  0  0  0  0  0
   62.0527  -82.8237  -11.6051 C   0  0  0  0  0  0  0  0  0  0  0  0
   63.2132  -82.9026  -12.2455 N   0  0  0  0  0  0  0  0  0  0  0  0
   63.2835  -82.5719  -13.5287 C   0  0  0  0  0  0  0  0  0  0  0  0
   62.1921  -82.1682  -14.1703 N   0  0  0  0  0  0  0  0  0  0  0  0
   64.4645  -82.6505  -14.1844 O   0  0  0  0  0  0  0  0  0  0  0  0
   64.6769  -81.3815  -14.8062 C   0  0  0  0  0  0  0  0  0  0  0  0
   61.9749  -83.1675  -10.2653 N   0  0  0  0  0  0  0  0  0  0  0  0
   61.3032  -84.2746   -9.8917 C   0  0  0  0  0  0  0  0  0  0  0  0
   60.7656  -84.9715  -10.7302 O   0  0  0  0  0  0  0  0  0  0  0  0
   61.2275  -84.6092   -8.5882 N   0  0  0  0  0  0  0  0  0  0  0  0
   60.2987  -85.8964   -8.1164 S   0  0  0  0  0  0  0  0  0  0  0  0
   60.2588  -85.8440   -6.6970 O   0  0  0  0  0  0  0  0  0  0  0  0
   59.1642  -85.8882   -8.9720 O   0  0  0  0  0  0  0  0  0  0  0  0
   61.1892  -87.3633   -8.5164 C   0  0  0  0  0  0  0  0  0  0  0  0
   60.5065  -88.5321   -8.7946 C   0  0  0  0  0  0  0  0  0  0  0  0
   61.2051  -89.6831   -9.1084 C   0  0  0  0  0  0  0  0  0  0  0  0
   62.5867  -89.6657   -9.1436 C   0  0  0  0  0  0  0  0  0  0  0  0
   63.2709  -88.4973   -8.8650 C   0  0  0  0  0  0  0  0  0  0  0  0
   62.5722  -87.3437   -8.5573 C   0  0  0  0  0  0  0  0  0  0  0  0
   63.4307  -85.8758   -8.2079 Cl  0  0  0  0  0  0  0  0  0  0  0  0
   59.7176  -80.5380  -14.1731 H   0  0  0  0  0  0  0  0  0  0  0  0
   59.8791  -81.8973  -15.3108 H   0  0  0  0  0  0  0  0  0  0  0  0
   58.9249  -82.0922  -13.8208 H   0  0  0  0  0  0  0  0  0  0  0  0
   65.6218  -81.3967  -15.3495 H   0  0  0  0  0  0  0  0  0  0  0  0
   63.8620  -81.1759  -15.5002 H   0  0  0  0  0  0  0  0  0  0  0  0
   64.7091  -80.6038  -14.0431 H   0  0  0  0  0  0  0  0  0  0  0  0
   62.4039  -82.6115   -9.5962 H   0  0  0  0  0  0  0  0  0  0  0  0
   61.7171  -84.0960   -7.9266 H   0  0  0  0  0  0  0  0  0  0  0  0
   59.4269  -88.5464   -8.7666 H   0  0  0  0  0  0  0  0  0  0  0  0
   60.6711  -90.5964   -9.3258 H   0  0  0  0  0  0  0  0  0  0  0  0
   63.1319  -90.5653   -9.3885 H   0  0  0  0  0  0  0  0  0  0  0  0
   64.3504  -88.4840   -8.8917 H   0  0  0  0  0  0  0  0  0  0  0  0
  1  2  1  0  0  0  0
  2  3  2  0  0  0  0
  3  4  1  0  0  0  0
  4  5  2  0  0  0  0
  5  6  1  0  0  0  0
  6  7  2  0  0  0  0
  2  7  1  0  0  0  0
  6  8  1  0  0  0  0
  8  9  1  0  0  0  0
  4 10  1  0  0  0  0
 10 11  1  0  0  0  0
 11 12  2  0  0  0  0
 11 13  1  0  0  0  0
 13 14  1  0  0  0  0
 14 15  2  0  0  0  0
 14 16  2  0  0  0  0
 14 17  1  0  0  0  0
 17 18  2  0  0  0  0
 18 19  1  0  0  0  0
 19 20  2  0  0  0  0
 20 21  1  0  0  0  0
 21 22  2  0  0  0  0
 17 22  1  0  0  0  0
 22 23  1  0  0  0  0
  1 24  1  0  0  0  0
  1 25  1  0  0  0  0
  1 26  1  0  0  0  0
  9 27  1  0  0  0  0
  9 28  1  0  0  0  0
  9 29  1  0  0  0  0
 10 30  1  0  0  0  0
 13 31  1  0  0  0  0
 18 32  1  0  0  0  0
 19 33  1  0  0  0  0
 20 34  1  0  0  0  0
 21 35  1  0  0  0  0
M  END
> <Gold.Version>
2021.2.0

> <Gold.Id.Protein>
5K6Q|5K6Q_protein|mol2

> <Gold.PLP.Fitness>
27.2295

> <Gold.PLP.PLP>
-19.8082

> <Gold.PLP.part.hbond>
-4.0000

> <Gold.PLP.part.metal>
0.0000

> <Gold.PLP.part.buried>
-3.1777

> <Gold.PLP.part.nonpolar>
-13.8480

> <Gold.PLP.part.repulsive>
0.5313

> <Gold.PLP.ligand.clash>
0.0000

> <Gold.PLP.ligand.torsion>
2.4115

> <Gold.PLP.Chemscore.Hbond>
2.9913

> <Gold.PLP.Chemscore.CHOScore>
0.0000

> <Gold.PLP.Chemscore.Metal>
0.0000

> <Gold.Chemscore.Hbonds>
donor molecule, donor type, donor heavy atom, donor atom, acceptor molecule, acceptor atom, score
      L1  H    13    31       P1  2260  1.00
      P1  H  2270  7194       L1    15  1.00
      P1  H  4725  8552       L1     8  0.99

> <Gold.PLP.Chemscore.Internal.Correction>
3.2706

> <Gold.Protein.RotatedTorsions>
[ 5877 1703 1702 1700 ] final  141.82 input   60.01 | X-H torsion
[ 6057 1881 1880 1877 ] final   57.98 input   60.00 | X-H torsion
[ 7193 2255 2254 2251 ] final    7.43 input   60.00 | X-H torsion
[ 7182 2269 2268 2267 ] final   25.71 input   59.99 | X-H torsion
[ 6931 4361 4360 4357 ] final -139.91 input   60.01 | X-H torsion
[ 8180 4471 4470 4468 ] final   35.78 input   60.00 | X-H torsion
[ 8184 4473 4472 4470 ] final  -96.95 input   60.00 | X-H torsion
[ 8203 4505 4504 4503 ] final  -77.62 input   60.00 | X-H torsion
[ 8212 4507 4506 4504 ] final   55.56 input   60.00 | X-H torsion
[ 8221 4509 4508 4506 ] final -143.43 input   60.00 | X-H torsion

> <Gold.Protein.ActiveResidues>
 TYR305  THR331  LEU332  MET333  LEU349  GLY350  MET351  HIS352  GLY353  ASN358 
 VAL372  ARG373  PHE374  ASP375  ASP376  ARG377  VAL378  THR379  GLY380  LYS381 
 LEU382  PHE385  ASN404  GLY508  GLY509  TRP574  ILE651  PRO652  SER653  GLY654 
 GLY655  FAD702  HOH839  HOH865  HOH881  HOH913  HOH945  HOH958  HOH960  HOH966 
 HOH968 

> <Gold.Protein.RotatedAtoms>
   60.1421  -74.5058   -3.1186 H   0  0  0  0  0  0  0  0  0  0  0  0  # atno 5877 bound_to 1703
   62.8793  -67.1514   -5.3559 H   0  0  0  0  0  0  0  0  0  0  0  0  # atno 6057 bound_to 1881
   68.6100  -81.2677  -12.6414 H   0  0  0  0  0  0  0  0  0  0  0  0  # atno 6931 bound_to 4361
   63.3375  -90.4733   -2.2088 H   0  0  0  0  0  0  0  0  0  0  0  0  # atno 7182 bound_to 2269
   62.9207  -89.5288   -0.9120 H   0  0  0  0  0  0  0  0  0  0  0  0  # atno 7183 bound_to 2269
   61.7397  -90.2069   -1.8569 H   0  0  0  0  0  0  0  0  0  0  0  0  # atno 7184 bound_to 2269
   62.2189  -80.2321   -5.7772 H   0  0  0  0  0  0  0  0  0  0  0  0  # atno 7193 bound_to 2255
   53.0379  -69.5555   -6.8103 H   0  0  0  0  0  0  0  0  0  0  0  0  # atno 8180 bound_to 4471
   51.1448  -67.4518   -9.3026 H   0  0  0  0  0  0  0  0  0  0  0  0  # atno 8184 bound_to 4473
   64.0426  -71.8228  -12.1710 H   0  0  0  0  0  0  0  0  0  0  0  0  # atno 8203 bound_to 4505
   63.3388  -70.0210  -11.7803 H   0  0  0  0  0  0  0  0  0  0  0  0  # atno 8212 bound_to 4507
   62.3177  -71.7331   -7.1024 H   0  0  0  0  0  0  0  0  0  0  0  0  # atno 8221 bound_to 4509
   61.2265  -73.3137   -3.3439 LP  0  0  0  0  0  0  0  0  0  0  0  0  # atno 9612 bound_to 1703
   59.6632  -73.0883   -3.7584 LP  0  0  0  0  0  0  0  0  0  0  0  0  # atno 9613 bound_to 1703
   62.0105  -67.1731   -3.9800 LP  0  0  0  0  0  0  0  0  0  0  0  0  # atno 9616 bound_to 1881
   61.5152  -68.0351   -5.2755 LP  0  0  0  0  0  0  0  0  0  0  0  0  # atno 9617 bound_to 1881
   60.8016  -79.4449   -5.9171 LP  0  0  0  0  0  0  0  0  0  0  0  0  # atno 9661 bound_to 2255
   60.8308  -80.9948   -5.4038 LP  0  0  0  0  0  0  0  0  0  0  0  0  # atno 9662 bound_to 2255
   70.1866  -81.4294  -12.2722 LP  0  0  0  0  0  0  0  0  0  0  0  0  # atno 9687 bound_to 4361
   69.1378  -80.8622  -11.1564 LP  0  0  0  0  0  0  0  0  0  0  0  0  # atno 9688 bound_to 4361
   53.6735  -70.2103   -8.1576 LP  0  0  0  0  0  0  0  0  0  0  0  0  # atno 9695 bound_to 4471
   52.1827  -69.5449   -8.1946 LP  0  0  0  0  0  0  0  0  0  0  0  0  # atno 9696 bound_to 4471
   50.6773  -67.2163   -7.7619 LP  0  0  0  0  0  0  0  0  0  0  0  0  # atno 9697 bound_to 4473
   51.3383  -68.6411   -8.2089 LP  0  0  0  0  0  0  0  0  0  0  0  0  # atno 9698 bound_to 4473
   63.8095  -73.2358  -11.3983 LP  0  0  0  0  0  0  0  0  0  0  0  0  # atno 9706 bound_to 4505
   65.3241  -72.6800  -11.6505 LP  0  0  0  0  0  0  0  0  0  0  0  0  # atno 9707 bound_to 4505
   63.7925  -69.1986  -10.4514 LP  0  0  0  0  0  0  0  0  0  0  0  0  # atno 9708 bound_to 4507
   62.2118  -69.3107  -10.8456 LP  0  0  0  0  0  0  0  0  0  0  0  0  # atno 9709 bound_to 4507
   63.9015  -71.6319   -7.4621 LP  0  0  0  0  0  0  0  0  0  0  0  0  # atno 9710 bound_to 4509
   62.9084  -72.5429   -8.3843 LP  0  0  0  0  0  0  0  0  0  0  0  0  # atno 9711 bound_to 4509

$$$$
