C12H12ClN5O4S|Chlorsulfuron|mol|1|dock29
  -GOLD-   2292221533D 1   1.00000     0.00000
 
 35 36  0  0  0  0  0  0  0  0  1 V2000
   63.5815  -74.6104  -18.1015 C   0  0  0  0  0  0  0  0  0  0  0  0
   62.7154  -75.2393  -17.0406 C   0  0  0  0  0  0  0  0  0  0  0  0
   63.1944  -76.2180  -16.2933 N   0  0  0  0  0  0  0  0  0  0  0  0
   62.4322  -76.7749  -15.3562 C   0  0  0  0  0  0  0  0  0  0  0  0
   61.1891  -76.3459  -15.1727 N   0  0  0  0  0  0  0  0  0  0  0  0
   60.7116  -75.3627  -15.9252 C   0  0  0  0  0  0  0  0  0  0  0  0
   61.4799  -74.8068  -16.8561 N   0  0  0  0  0  0  0  0  0  0  0  0
   59.4451  -74.9233  -15.7414 O   0  0  0  0  0  0  0  0  0  0  0  0
   59.5350  -73.5444  -15.3771 C   0  0  0  0  0  0  0  0  0  0  0  0
   62.9345  -77.8014  -14.5732 N   0  0  0  0  0  0  0  0  0  0  0  0
   63.6530  -78.7912  -15.1394 C   0  0  0  0  0  0  0  0  0  0  0  0
   63.8601  -78.7833  -16.3372 O   0  0  0  0  0  0  0  0  0  0  0  0
   64.1416  -79.7899  -14.3776 N   0  0  0  0  0  0  0  0  0  0  0  0
   64.9154  -81.0703  -15.0876 S   0  0  0  0  0  0  0  0  0  0  0  0
   66.1317  -80.5482  -15.6044 O   0  0  0  0  0  0  0  0  0  0  0  0
   64.8082  -82.1460  -14.1652 O   0  0  0  0  0  0  0  0  0  0  0  0
   63.9643  -81.5476  -16.4920 C   0  0  0  0  0  0  0  0  0  0  0  0
   64.5769  -81.7040  -17.7208 C   0  0  0  0  0  0  0  0  0  0  0  0
   63.8307  -82.0784  -18.8229 C   0  0  0  0  0  0  0  0  0  0  0  0
   62.4716  -82.2960  -18.6965 C   0  0  0  0  0  0  0  0  0  0  0  0
   61.8576  -82.1394  -17.4680 C   0  0  0  0  0  0  0  0  0  0  0  0
   62.6048  -81.7711  -16.3635 C   0  0  0  0  0  0  0  0  0  0  0  0
   61.8345  -81.5748  -14.8202 Cl  0  0  0  0  0  0  0  0  0  0  0  0
   63.4520  -75.1468  -19.0414 H   0  0  0  0  0  0  0  0  0  0  0  0
   63.2928  -73.5678  -18.2353 H   0  0  0  0  0  0  0  0  0  0  0  0
   64.6263  -74.6616  -17.7950 H   0  0  0  0  0  0  0  0  0  0  0  0
   58.5336  -73.1446  -15.2179 H   0  0  0  0  0  0  0  0  0  0  0  0
   60.1149  -73.4483  -14.4592 H   0  0  0  0  0  0  0  0  0  0  0  0
   60.0253  -72.9887  -16.1765 H   0  0  0  0  0  0  0  0  0  0  0  0
   62.7692  -77.8077  -13.6173 H   0  0  0  0  0  0  0  0  0  0  0  0
   64.0402  -79.7586  -13.4135 H   0  0  0  0  0  0  0  0  0  0  0  0
   65.6387  -81.5335  -17.8203 H   0  0  0  0  0  0  0  0  0  0  0  0
   64.3099  -82.2005  -19.7830 H   0  0  0  0  0  0  0  0  0  0  0  0
   61.8892  -82.5881  -19.5579 H   0  0  0  0  0  0  0  0  0  0  0  0
   60.7955  -82.3086  -17.3695 H   0  0  0  0  0  0  0  0  0  0  0  0
  1  2  1  0  0  0  0
  2  3  2  0  0  0  0
  3  4  1  0  0  0  0
  4  5  2  0  0  0  0
  5  6  1  0  0  0  0
  6  7  2  0  0  0  0
  2  7  1  0  0  0  0
  6  8  1  0  0  0  0
  8  9  1  0  0  0  0
  4 10  1  0  0  0  0
 10 11  1  0  0  0  0
 11 12  2  0  0  0  0
 11 13  1  0  0  0  0
 13 14  1  0  0  0  0
 14 15  2  0  0  0  0
 14 16  2  0  0  0  0
 14 17  1  0  0  0  0
 17 18  2  0  0  0  0
 18 19  1  0  0  0  0
 19 20  2  0  0  0  0
 20 21  1  0  0  0  0
 21 22  2  0  0  0  0
 17 22  1  0  0  0  0
 22 23  1  0  0  0  0
  1 24  1  0  0  0  0
  1 25  1  0  0  0  0
  1 26  1  0  0  0  0
  9 27  1  0  0  0  0
  9 28  1  0  0  0  0
  9 29  1  0  0  0  0
 10 30  1  0  0  0  0
 13 31  1  0  0  0  0
 18 32  1  0  0  0  0
 19 33  1  0  0  0  0
 20 34  1  0  0  0  0
 21 35  1  0  0  0  0
M  END
> <Gold.Version>
2021.2.0

> <Gold.Id.Protein>
5K6Q|5K6Q_protein|mol2

> <Gold.PLP.Fitness>
20.1214

> <Gold.PLP.PLP>
-13.8445

> <Gold.PLP.part.hbond>
-6.3005

> <Gold.PLP.part.metal>
0.0000

> <Gold.PLP.part.buried>
-1.8086

> <Gold.PLP.part.nonpolar>
-8.0884

> <Gold.PLP.part.repulsive>
0.5587

> <Gold.PLP.ligand.clash>
0.0000

> <Gold.PLP.ligand.torsion>
2.0151

> <Gold.PLP.Chemscore.Hbond>
2.3455

> <Gold.PLP.Chemscore.CHOScore>
0.0000

> <Gold.PLP.Chemscore.Metal>
0.0000

> <Gold.Chemscore.Hbonds>
donor molecule, donor type, donor heavy atom, donor atom, acceptor molecule, acceptor atom, score
      L1  H    10    30       P1  2230  0.71
      L1  H    13    31       P1  2231  0.81
      P1  H  2242  7198       L1    15  0.53
      P1  H  4725  8552       L1    16  0.29

> <Gold.PLP.Chemscore.Internal.Correction>
3.2706

> <Gold.Protein.RotatedTorsions>
[ 5877 1703 1702 1700 ] final  -27.05 input   60.01 | X-H torsion
[ 6057 1881 1880 1877 ] final    3.34 input   60.00 | X-H torsion
[ 7193 2255 2254 2251 ] final  124.21 input   60.00 | X-H torsion
[ 7182 2269 2268 2267 ] final  -72.42 input   59.99 | X-H torsion
[ 6931 4361 4360 4357 ] final  169.35 input   60.01 | X-H torsion
[ 8180 4471 4470 4468 ] final  125.08 input   60.00 | X-H torsion
[ 8184 4473 4472 4470 ] final -143.25 input   60.00 | X-H torsion
[ 8203 4505 4504 4503 ] final   68.48 input   60.00 | X-H torsion
[ 8212 4507 4506 4504 ] final   64.79 input   60.00 | X-H torsion
[ 8221 4509 4508 4506 ] final -102.39 input   60.00 | X-H torsion

> <Gold.Protein.ActiveResidues>
 TYR305  THR331  LEU332  MET333  LEU349  GLY350  MET351  HIS352  GLY353  ASN358 
 VAL372  ARG373  PHE374  ASP375  ASP376  ARG377  VAL378  THR379  GLY380  LYS381 
 LEU382  PHE385  ASN404  GLY508  GLY509  TRP574  ILE651  PRO652  SER653  GLY654 
 GLY655  FAD702  HOH839  HOH865  HOH881  HOH913  HOH945  HOH958  HOH960  HOH966 
 HOH968 

> <Gold.Protein.RotatedAtoms>
   60.7134  -72.8103   -3.6399 H   0  0  0  0  0  0  0  0  0  0  0  0  # atno 5877 bound_to 1703
   62.7984  -66.8757   -4.5460 H   0  0  0  0  0  0  0  0  0  0  0  0  # atno 6057 bound_to 1881
   69.3324  -81.4903  -12.9101 H   0  0  0  0  0  0  0  0  0  0  0  0  # atno 6931 bound_to 4361
   61.8961  -90.4001   -2.1215 H   0  0  0  0  0  0  0  0  0  0  0  0  # atno 7182 bound_to 2269
   63.5432  -90.2983   -1.9658 H   0  0  0  0  0  0  0  0  0  0  0  0  # atno 7183 bound_to 2269
   62.5588  -89.5102   -0.8900 H   0  0  0  0  0  0  0  0  0  0  0  0  # atno 7184 bound_to 2269
   60.8808  -81.0129   -5.3997 H   0  0  0  0  0  0  0  0  0  0  0  0  # atno 7193 bound_to 2255
   52.1117  -69.3843   -7.7292 H   0  0  0  0  0  0  0  0  0  0  0  0  # atno 8180 bound_to 4471
   50.8431  -66.9592   -8.8463 H   0  0  0  0  0  0  0  0  0  0  0  0  # atno 8184 bound_to 4473
   65.1648  -73.0254  -11.4621 H   0  0  0  0  0  0  0  0  0  0  0  0  # atno 8203 bound_to 4505
   63.1906  -70.0247  -11.8068 H   0  0  0  0  0  0  0  0  0  0  0  0  # atno 8212 bound_to 4507
   62.1215  -72.1335   -7.5838 H   0  0  0  0  0  0  0  0  0  0  0  0  # atno 8221 bound_to 4509
   59.4240  -73.7981   -3.5402 LP  0  0  0  0  0  0  0  0  0  0  0  0  # atno 9612 bound_to 1703
   60.8903  -74.3114   -3.0371 LP  0  0  0  0  0  0  0  0  0  0  0  0  # atno 9613 bound_to 1703
   61.4194  -67.7085   -4.3159 LP  0  0  0  0  0  0  0  0  0  0  0  0  # atno 9616 bound_to 1881
   62.1877  -67.7773   -5.7552 LP  0  0  0  0  0  0  0  0  0  0  0  0  # atno 9617 bound_to 1881
   62.2229  -80.1826   -5.7965 LP  0  0  0  0  0  0  0  0  0  0  0  0  # atno 9661 bound_to 2255
   60.7571  -79.4708   -5.9046 LP  0  0  0  0  0  0  0  0  0  0  0  0  # atno 9662 bound_to 2255
   70.1027  -81.1595  -11.5153 LP  0  0  0  0  0  0  0  0  0  0  0  0  # atno 9687 bound_to 4361
   68.4942  -80.9080  -11.6426 LP  0  0  0  0  0  0  0  0  0  0  0  0  # atno 9688 bound_to 4361
   53.4667  -69.7822   -6.9206 LP  0  0  0  0  0  0  0  0  0  0  0  0  # atno 9695 bound_to 4471
   53.3222  -70.1454   -8.5061 LP  0  0  0  0  0  0  0  0  0  0  0  0  # atno 9696 bound_to 4471
   50.8748  -67.8843   -7.5081 LP  0  0  0  0  0  0  0  0  0  0  0  0  # atno 9697 bound_to 4473
   51.4446  -68.4692   -8.9222 LP  0  0  0  0  0  0  0  0  0  0  0  0  # atno 9698 bound_to 4473
   64.4609  -71.7549  -12.1958 LP  0  0  0  0  0  0  0  0  0  0  0  0  # atno 9706 bound_to 4505
   63.5427  -72.9498  -11.5669 LP  0  0  0  0  0  0  0  0  0  0  0  0  # atno 9707 bound_to 4505
   63.8883  -69.2685  -10.5460 LP  0  0  0  0  0  0  0  0  0  0  0  0  # atno 9708 bound_to 4507
   62.2654  -69.2370  -10.7243 LP  0  0  0  0  0  0  0  0  0  0  0  0  # atno 9709 bound_to 4507
   63.4645  -71.4080   -7.0199 LP  0  0  0  0  0  0  0  0  0  0  0  0  # atno 9710 bound_to 4509
   63.5430  -72.3636   -8.3418 LP  0  0  0  0  0  0  0  0  0  0  0  0  # atno 9711 bound_to 4509

$$$$
