C12H12ClN5O4S|Chlorsulfuron|mol|1|dock35
  -GOLD-   2292221543D 1   1.00000     0.00000
 
 35 36  0  0  0  0  0  0  0  0  1 V2000
   63.0080  -74.4655  -18.3930 C   0  0  0  0  0  0  0  0  0  0  0  0
   62.2366  -75.0430  -17.2342 C   0  0  0  0  0  0  0  0  0  0  0  0
   62.7764  -75.9929  -16.4910 N   0  0  0  0  0  0  0  0  0  0  0  0
   62.0978  -76.5044  -15.4677 C   0  0  0  0  0  0  0  0  0  0  0  0
   60.8772  -76.0591  -15.1939 N   0  0  0  0  0  0  0  0  0  0  0  0
   60.3386  -75.1051  -15.9426 C   0  0  0  0  0  0  0  0  0  0  0  0
   61.0237  -74.5944  -16.9603 N   0  0  0  0  0  0  0  0  0  0  0  0
   59.0947  -74.6492  -15.6670 O   0  0  0  0  0  0  0  0  0  0  0  0
   59.2237  -73.2611  -15.3530 C   0  0  0  0  0  0  0  0  0  0  0  0
   62.6637  -77.5006  -14.6889 N   0  0  0  0  0  0  0  0  0  0  0  0
   63.4500  -78.4358  -15.2579 C   0  0  0  0  0  0  0  0  0  0  0  0
   63.6624  -78.4052  -16.4544 O   0  0  0  0  0  0  0  0  0  0  0  0
   64.0005  -79.4051  -14.5002 N   0  0  0  0  0  0  0  0  0  0  0  0
   64.8622  -80.6255  -15.2147 S   0  0  0  0  0  0  0  0  0  0  0  0
   66.0565  -80.0245  -15.6959 O   0  0  0  0  0  0  0  0  0  0  0  0
   64.7986  -81.7220  -14.3131 O   0  0  0  0  0  0  0  0  0  0  0  0
   63.9700  -81.1315  -16.6474 C   0  0  0  0  0  0  0  0  0  0  0  0
   64.6180  -81.2380  -17.8633 C   0  0  0  0  0  0  0  0  0  0  0  0
   63.9181  -81.6349  -18.9876 C   0  0  0  0  0  0  0  0  0  0  0  0
   62.5698  -81.9249  -18.8963 C   0  0  0  0  0  0  0  0  0  0  0  0
   61.9203  -81.8183  -17.6807 C   0  0  0  0  0  0  0  0  0  0  0  0
   62.6215  -81.4275  -16.5541 C   0  0  0  0  0  0  0  0  0  0  0  0
   61.8067  -81.2940  -15.0270 Cl  0  0  0  0  0  0  0  0  0  0  0  0
   62.7942  -75.0400  -19.2942 H   0  0  0  0  0  0  0  0  0  0  0  0
   62.7122  -73.4275  -18.5451 H   0  0  0  0  0  0  0  0  0  0  0  0
   64.0755  -74.5113  -18.1777 H   0  0  0  0  0  0  0  0  0  0  0  0
   58.2416  -72.8480  -15.1227 H   0  0  0  0  0  0  0  0  0  0  0  0
   59.8790  -73.1433  -14.4900 H   0  0  0  0  0  0  0  0  0  0  0  0
   59.6488  -72.7334  -16.2067 H   0  0  0  0  0  0  0  0  0  0  0  0
   62.4942  -77.5250  -13.7341 H   0  0  0  0  0  0  0  0  0  0  0  0
   63.8921  -79.3877  -13.5365 H   0  0  0  0  0  0  0  0  0  0  0  0
   65.6714  -81.0108  -17.9354 H   0  0  0  0  0  0  0  0  0  0  0  0
   64.4250  -81.7180  -19.9376 H   0  0  0  0  0  0  0  0  0  0  0  0
   62.0235  -82.2347  -19.7750 H   0  0  0  0  0  0  0  0  0  0  0  0
   60.8666  -82.0442  -17.6096 H   0  0  0  0  0  0  0  0  0  0  0  0
  1  2  1  0  0  0  0
  2  3  2  0  0  0  0
  3  4  1  0  0  0  0
  4  5  2  0  0  0  0
  5  6  1  0  0  0  0
  6  7  2  0  0  0  0
  2  7  1  0  0  0  0
  6  8  1  0  0  0  0
  8  9  1  0  0  0  0
  4 10  1  0  0  0  0
 10 11  1  0  0  0  0
 11 12  2  0  0  0  0
 11 13  1  0  0  0  0
 13 14  1  0  0  0  0
 14 15  2  0  0  0  0
 14 16  2  0  0  0  0
 14 17  1  0  0  0  0
 17 18  2  0  0  0  0
 18 19  1  0  0  0  0
 19 20  2  0  0  0  0
 20 21  1  0  0  0  0
 21 22  2  0  0  0  0
 17 22  1  0  0  0  0
 22 23  1  0  0  0  0
  1 24  1  0  0  0  0
  1 25  1  0  0  0  0
  1 26  1  0  0  0  0
  9 27  1  0  0  0  0
  9 28  1  0  0  0  0
  9 29  1  0  0  0  0
 10 30  1  0  0  0  0
 13 31  1  0  0  0  0
 18 32  1  0  0  0  0
 19 33  1  0  0  0  0
 20 34  1  0  0  0  0
 21 35  1  0  0  0  0
M  END
> <Gold.Version>
2021.2.0

> <Gold.Id.Protein>
5K6Q|5K6Q_protein|mol2

> <Gold.PLP.Fitness>
21.5612

> <Gold.PLP.PLP>
-16.4454

> <Gold.PLP.part.hbond>
-5.2856

> <Gold.PLP.part.metal>
0.0000

> <Gold.PLP.part.buried>
-4.5699

> <Gold.PLP.part.nonpolar>
-8.6156

> <Gold.PLP.part.repulsive>
0.5338

> <Gold.PLP.ligand.clash>
0.0000

> <Gold.PLP.ligand.torsion>
1.9272

> <Gold.PLP.Chemscore.Hbond>
1.8999

> <Gold.PLP.Chemscore.CHOScore>
0.0000

> <Gold.PLP.Chemscore.Metal>
0.0000

> <Gold.Chemscore.Hbonds>
donor molecule, donor type, donor heavy atom, donor atom, acceptor molecule, acceptor atom, score
      L1  H    10    30       P1  2230  0.41
      L1  H    13    31       P1  2231  1.00
      P1  H  2242  7198       L1    15  0.36
      P1  H  4723  8580       L1    16  0.13

> <Gold.PLP.Chemscore.Internal.Correction>
3.2706

> <Gold.Protein.RotatedTorsions>
[ 5877 1703 1702 1700 ] final   70.95 input   60.01 | X-H torsion
[ 6057 1881 1880 1877 ] final   -9.60 input   60.00 | X-H torsion
[ 7193 2255 2254 2251 ] final  -17.38 input   60.00 | X-H torsion
[ 7182 2269 2268 2267 ] final  -22.97 input   59.99 | X-H torsion
[ 6931 4361 4360 4357 ] final   -4.87 input   60.01 | X-H torsion
[ 8180 4471 4470 4468 ] final  -59.48 input   60.00 | X-H torsion
[ 8184 4473 4472 4470 ] final   78.30 input   60.00 | X-H torsion
[ 8203 4505 4504 4503 ] final  -79.77 input   60.00 | X-H torsion
[ 8212 4507 4506 4504 ] final  -45.81 input   60.00 | X-H torsion
[ 8221 4509 4508 4506 ] final    4.66 input   60.00 | X-H torsion

> <Gold.Protein.ActiveResidues>
 TYR305  THR331  LEU332  MET333  LEU349  GLY350  MET351  HIS352  GLY353  ASN358 
 VAL372  ARG373  PHE374  ASP375  ASP376  ARG377  VAL378  THR379  GLY380  LYS381 
 LEU382  PHE385  ASN404  GLY508  GLY509  TRP574  ILE651  PRO652  SER653  GLY654 
 GLY655  FAD702  HOH839  HOH865  HOH881  HOH913  HOH945  HOH958  HOH960  HOH966 
 HOH968 

> <Gold.Protein.RotatedAtoms>
   61.1241  -74.0440   -3.0865 H   0  0  0  0  0  0  0  0  0  0  0  0  # atno 5877 bound_to 1703
   62.6830  -66.8815   -4.3694 H   0  0  0  0  0  0  0  0  0  0  0  0  # atno 6057 bound_to 1881
   69.3796  -80.9020  -11.1355 H   0  0  0  0  0  0  0  0  0  0  0  0  # atno 6931 bound_to 4361
   62.5972  -90.6302   -2.4317 H   0  0  0  0  0  0  0  0  0  0  0  0  # atno 7182 bound_to 2269
   63.5269  -89.8280   -1.3184 H   0  0  0  0  0  0  0  0  0  0  0  0  # atno 7183 bound_to 2269
   61.8737  -89.7506   -1.2274 H   0  0  0  0  0  0  0  0  0  0  0  0  # atno 7184 bound_to 2269
   62.1258  -79.8584   -5.8934 H   0  0  0  0  0  0  0  0  0  0  0  0  # atno 7193 bound_to 2255
   53.8099  -70.1678   -7.7811 H   0  0  0  0  0  0  0  0  0  0  0  0  # atno 8180 bound_to 4471
   50.9971  -68.1517   -7.5740 H   0  0  0  0  0  0  0  0  0  0  0  0  # atno 8184 bound_to 4473
   64.0104  -71.8352  -12.1653 H   0  0  0  0  0  0  0  0  0  0  0  0  # atno 8203 bound_to 4505
   63.9591  -69.3494  -10.6565 H   0  0  0  0  0  0  0  0  0  0  0  0  # atno 8212 bound_to 4507
   63.3531  -72.4426   -8.3930 H   0  0  0  0  0  0  0  0  0  0  0  0  # atno 8221 bound_to 4509
   60.3721  -72.7549   -3.7353 LP  0  0  0  0  0  0  0  0  0  0  0  0  # atno 9612 bound_to 1703
   59.5286  -74.1122   -3.3993 LP  0  0  0  0  0  0  0  0  0  0  0  0  # atno 9613 bound_to 1703
   61.3582  -67.8193   -4.4866 LP  0  0  0  0  0  0  0  0  0  0  0  0  # atno 9616 bound_to 1881
   62.3651  -67.6606   -5.7623 LP  0  0  0  0  0  0  0  0  0  0  0  0  # atno 9617 bound_to 1881
   60.5084  -79.7014   -5.8059 LP  0  0  0  0  0  0  0  0  0  0  0  0  # atno 9661 bound_to 2255
   61.2177  -81.1146   -5.3979 LP  0  0  0  0  0  0  0  0  0  0  0  0  # atno 9662 bound_to 2255
   68.4726  -81.1783  -12.4581 LP  0  0  0  0  0  0  0  0  0  0  0  0  # atno 9687 bound_to 4361
   70.0769  -81.4816  -12.4868 LP  0  0  0  0  0  0  0  0  0  0  0  0  # atno 9688 bound_to 4361
   52.4081  -69.7237   -8.4782 LP  0  0  0  0  0  0  0  0  0  0  0  0  # atno 9695 bound_to 4471
   52.6705  -69.4149   -6.8963 LP  0  0  0  0  0  0  0  0  0  0  0  0  # atno 9696 bound_to 4471
   51.4180  -68.2633   -9.1419 LP  0  0  0  0  0  0  0  0  0  0  0  0  # atno 9697 bound_to 4473
   50.7463  -66.8893   -8.5697 LP  0  0  0  0  0  0  0  0  0  0  0  0  # atno 9698 bound_to 4473
   63.8376  -73.2539  -11.3872 LP  0  0  0  0  0  0  0  0  0  0  0  0  # atno 9706 bound_to 4505
   65.3285  -72.6494  -11.6674 LP  0  0  0  0  0  0  0  0  0  0  0  0  # atno 9707 bound_to 4505
   62.3425  -69.1692  -10.6089 LP  0  0  0  0  0  0  0  0  0  0  0  0  # atno 9708 bound_to 4507
   63.0372  -70.0164  -11.8198 LP  0  0  0  0  0  0  0  0  0  0  0  0  # atno 9709 bound_to 4507
   62.1289  -72.0087   -7.4126 LP  0  0  0  0  0  0  0  0  0  0  0  0  # atno 9710 bound_to 4509
   63.6384  -71.4516   -7.1342 LP  0  0  0  0  0  0  0  0  0  0  0  0  # atno 9711 bound_to 4509

$$$$
