C12H12ClN5O4S|Chlorsulfuron|mol|1|dock20
  -GOLD-   2292221533D 1   1.00000     0.00000
 
 35 36  0  0  0  0  0  0  0  0  1 V2000
   67.1721  -73.7210  -13.8968 C   0  0  0  0  0  0  0  0  0  0  0  0
   66.3060  -74.7638  -14.5554 C   0  0  0  0  0  0  0  0  0  0  0  0
   65.1865  -75.1548  -13.9726 N   0  0  0  0  0  0  0  0  0  0  0  0
   64.4203  -76.0750  -14.5516 C   0  0  0  0  0  0  0  0  0  0  0  0
   64.7819  -76.6003  -15.7163 N   0  0  0  0  0  0  0  0  0  0  0  0
   65.9069  -76.2050  -16.2985 C   0  0  0  0  0  0  0  0  0  0  0  0
   66.6654  -75.2814  -15.7175 N   0  0  0  0  0  0  0  0  0  0  0  0
   66.2789  -76.7384  -17.4850 O   0  0  0  0  0  0  0  0  0  0  0  0
   66.3473  -75.6595  -18.4196 C   0  0  0  0  0  0  0  0  0  0  0  0
   63.2468  -76.4851  -13.9401 N   0  0  0  0  0  0  0  0  0  0  0  0
   62.0611  -76.0102  -14.3703 C   0  0  0  0  0  0  0  0  0  0  0  0
   62.0214  -75.2218  -15.2948 O   0  0  0  0  0  0  0  0  0  0  0  0
   60.9194  -76.4091  -13.7754 N   0  0  0  0  0  0  0  0  0  0  0  0
   59.4745  -75.7320  -14.2184 S   0  0  0  0  0  0  0  0  0  0  0  0
   58.4800  -76.4249  -13.4768 O   0  0  0  0  0  0  0  0  0  0  0  0
   59.6848  -74.3267  -14.1995 O   0  0  0  0  0  0  0  0  0  0  0  0
   59.1919  -76.1511  -15.9063 C   0  0  0  0  0  0  0  0  0  0  0  0
   59.9151  -77.1705  -16.4957 C   0  0  0  0  0  0  0  0  0  0  0  0
   59.6936  -77.4994  -17.8202 C   0  0  0  0  0  0  0  0  0  0  0  0
   58.7489  -76.8086  -18.5557 C   0  0  0  0  0  0  0  0  0  0  0  0
   58.0251  -75.7884  -17.9673 C   0  0  0  0  0  0  0  0  0  0  0  0
   58.2418  -75.4632  -16.6403 C   0  0  0  0  0  0  0  0  0  0  0  0
   57.3327  -74.1825  -15.9006 Cl  0  0  0  0  0  0  0  0  0  0  0  0
   67.8961  -74.2091  -13.2444 H   0  0  0  0  0  0  0  0  0  0  0  0
   67.6989  -73.1504  -14.6616 H   0  0  0  0  0  0  0  0  0  0  0  0
   66.5475  -73.0492  -13.3079 H   0  0  0  0  0  0  0  0  0  0  0  0
   66.6451  -76.0427  -19.3956 H   0  0  0  0  0  0  0  0  0  0  0  0
   65.3694  -75.1846  -18.4985 H   0  0  0  0  0  0  0  0  0  0  0  0
   67.0797  -74.9283  -18.0775 H   0  0  0  0  0  0  0  0  0  0  0  0
   63.2784  -77.1142  -13.2024 H   0  0  0  0  0  0  0  0  0  0  0  0
   60.9441  -77.0929  -13.0879 H   0  0  0  0  0  0  0  0  0  0  0  0
   60.6539  -77.7101  -15.9217 H   0  0  0  0  0  0  0  0  0  0  0  0
   60.2590  -78.2961  -18.2805 H   0  0  0  0  0  0  0  0  0  0  0  0
   58.5765  -77.0658  -19.5904 H   0  0  0  0  0  0  0  0  0  0  0  0
   57.2876  -75.2482  -18.5423 H   0  0  0  0  0  0  0  0  0  0  0  0
  1  2  1  0  0  0  0
  2  3  2  0  0  0  0
  3  4  1  0  0  0  0
  4  5  2  0  0  0  0
  5  6  1  0  0  0  0
  6  7  2  0  0  0  0
  2  7  1  0  0  0  0
  6  8  1  0  0  0  0
  8  9  1  0  0  0  0
  4 10  1  0  0  0  0
 10 11  1  0  0  0  0
 11 12  2  0  0  0  0
 11 13  1  0  0  0  0
 13 14  1  0  0  0  0
 14 15  2  0  0  0  0
 14 16  2  0  0  0  0
 14 17  1  0  0  0  0
 17 18  2  0  0  0  0
 18 19  1  0  0  0  0
 19 20  2  0  0  0  0
 20 21  1  0  0  0  0
 21 22  2  0  0  0  0
 17 22  1  0  0  0  0
 22 23  1  0  0  0  0
  1 24  1  0  0  0  0
  1 25  1  0  0  0  0
  1 26  1  0  0  0  0
  9 27  1  0  0  0  0
  9 28  1  0  0  0  0
  9 29  1  0  0  0  0
 10 30  1  0  0  0  0
 13 31  1  0  0  0  0
 18 32  1  0  0  0  0
 19 33  1  0  0  0  0
 20 34  1  0  0  0  0
 21 35  1  0  0  0  0
M  END
> <Gold.Version>
2021.2.0

> <Gold.Id.Protein>
5K6Q|5K6Q_protein|mol2

> <Gold.PLP.Fitness>
28.4561

> <Gold.PLP.PLP>
-21.2282

> <Gold.PLP.part.hbond>
-4.7169

> <Gold.PLP.part.metal>
0.0000

> <Gold.PLP.part.buried>
-5.5886

> <Gold.PLP.part.nonpolar>
-12.0602

> <Gold.PLP.part.repulsive>
0.5053

> <Gold.PLP.ligand.clash>
0.0000

> <Gold.PLP.ligand.torsion>
2.4906

> <Gold.PLP.Chemscore.Hbond>
2.9795

> <Gold.PLP.Chemscore.CHOScore>
0.0000

> <Gold.PLP.Chemscore.Metal>
0.0000

> <Gold.Chemscore.Hbonds>
donor molecule, donor type, donor heavy atom, donor atom, acceptor molecule, acceptor atom, score
      L1  H    10    30       P1  2230  1.00
      L1  H    13    31       P1  2230  0.20
      P1  H  2203  7120       L1    16  1.00
      P1  H  4717  8548       L1     8  0.78

> <Gold.PLP.Chemscore.Internal.Correction>
3.2706

> <Gold.Protein.RotatedTorsions>
[ 5877 1703 1702 1700 ] final -153.67 input   60.01 | X-H torsion
[ 6057 1881 1880 1877 ] final  -38.90 input   60.00 | X-H torsion
[ 7193 2255 2254 2251 ] final -123.23 input   60.00 | X-H torsion
[ 7182 2269 2268 2267 ] final -136.23 input   59.99 | X-H torsion
[ 6931 4361 4360 4357 ] final  148.79 input   60.01 | X-H torsion
[ 8180 4471 4470 4468 ] final -145.59 input   60.00 | X-H torsion
[ 8184 4473 4472 4470 ] final   33.16 input   60.00 | X-H torsion
[ 8203 4505 4504 4503 ] final -167.36 input   60.00 | X-H torsion
[ 8212 4507 4506 4504 ] final -137.46 input   60.00 | X-H torsion
[ 8221 4509 4508 4506 ] final  -43.62 input   60.00 | X-H torsion

> <Gold.Protein.ActiveResidues>
 TYR305  THR331  LEU332  MET333  LEU349  GLY350  MET351  HIS352  GLY353  ASN358 
 VAL372  ARG373  PHE374  ASP375  ASP376  ARG377  VAL378  THR379  GLY380  LYS381 
 LEU382  PHE385  ASN404  GLY508  GLY509  TRP574  ILE651  PRO652  SER653  GLY654 
 GLY655  FAD702  HOH839  HOH865  HOH881  HOH913  HOH945  HOH958  HOH960  HOH966 
 HOH968 

> <Gold.Protein.RotatedAtoms>
   59.4476  -73.8946   -3.4962 H   0  0  0  0  0  0  0  0  0  0  0  0  # atno 5877 bound_to 1703
   62.3307  -66.9992   -4.0756 H   0  0  0  0  0  0  0  0  0  0  0  0  # atno 6057 bound_to 1881
   69.6548  -81.5217  -12.8281 H   0  0  0  0  0  0  0  0  0  0  0  0  # atno 6931 bound_to 4361
   61.8164  -89.8072   -1.3058 H   0  0  0  0  0  0  0  0  0  0  0  0  # atno 7182 bound_to 2269
   62.7099  -90.6316   -2.4324 H   0  0  0  0  0  0  0  0  0  0  0  0  # atno 7183 bound_to 2269
   63.4722  -89.7699   -1.2392 H   0  0  0  0  0  0  0  0  0  0  0  0  # atno 7184 bound_to 2269
   60.6656  -79.5438   -5.8698 H   0  0  0  0  0  0  0  0  0  0  0  0  # atno 7193 bound_to 2255
   52.8726  -69.9721   -8.6281 H   0  0  0  0  0  0  0  0  0  0  0  0  # atno 8180 bound_to 4471
   51.2871  -68.5971   -8.0575 H   0  0  0  0  0  0  0  0  0  0  0  0  # atno 8184 bound_to 4473
   63.5212  -72.8921  -11.5970 H   0  0  0  0  0  0  0  0  0  0  0  0  # atno 8203 bound_to 4505
   62.6924  -69.0318  -10.3434 H   0  0  0  0  0  0  0  0  0  0  0  0  # atno 8212 bound_to 4507
   62.6026  -72.5221   -8.2634 H   0  0  0  0  0  0  0  0  0  0  0  0  # atno 8221 bound_to 4509
   60.9727  -74.2409   -3.0464 LP  0  0  0  0  0  0  0  0  0  0  0  0  # atno 9612 bound_to 1703
   60.6165  -72.7767   -3.6756 LP  0  0  0  0  0  0  0  0  0  0  0  0  # atno 9613 bound_to 1703
   61.3672  -67.9941   -4.9302 LP  0  0  0  0  0  0  0  0  0  0  0  0  # atno 9616 bound_to 1881
   62.7109  -67.3673   -5.6145 LP  0  0  0  0  0  0  0  0  0  0  0  0  # atno 9617 bound_to 1881
   60.9908  -81.0657   -5.3943 LP  0  0  0  0  0  0  0  0  0  0  0  0  # atno 9661 bound_to 2255
   62.2060  -80.0672   -5.8334 LP  0  0  0  0  0  0  0  0  0  0  0  0  # atno 9662 bound_to 2255
   69.8821  -81.0432  -11.2894 LP  0  0  0  0  0  0  0  0  0  0  0  0  # atno 9687 bound_to 4361
   68.3901  -80.9927  -11.9512 LP  0  0  0  0  0  0  0  0  0  0  0  0  # atno 9688 bound_to 4361
   52.2676  -69.3308   -7.2604 LP  0  0  0  0  0  0  0  0  0  0  0  0  # atno 9695 bound_to 4471
   53.7549  -70.0049   -7.2611 LP  0  0  0  0  0  0  0  0  0  0  0  0  # atno 9696 bound_to 4471
   51.2089  -67.5998   -9.3409 LP  0  0  0  0  0  0  0  0  0  0  0  0  # atno 9697 bound_to 4473
   50.6634  -67.1042   -7.8838 LP  0  0  0  0  0  0  0  0  0  0  0  0  # atno 9698 bound_to 4473
   65.1298  -73.0785  -11.4366 LP  0  0  0  0  0  0  0  0  0  0  0  0  # atno 9706 bound_to 4505
   64.5289  -71.7604  -12.1902 LP  0  0  0  0  0  0  0  0  0  0  0  0  # atno 9707 bound_to 4505
   62.6016  -69.9072  -11.7121 LP  0  0  0  0  0  0  0  0  0  0  0  0  # atno 9708 bound_to 4507
   64.0537  -69.5982  -11.0320 LP  0  0  0  0  0  0  0  0  0  0  0  0  # atno 9709 bound_to 4507
   62.5558  -71.5662   -6.9472 LP  0  0  0  0  0  0  0  0  0  0  0  0  # atno 9710 bound_to 4509
   63.9673  -71.8140   -7.7301 LP  0  0  0  0  0  0  0  0  0  0  0  0  # atno 9711 bound_to 4509

$$$$
