C12H12ClN5O4S|Chlorsulfuron|mol|1|dock42
  -GOLD-   2292221543D 1   1.00000     0.00000
 
 35 36  0  0  0  0  0  0  0  0  1 V2000
   66.8819  -73.3998  -13.9822 C   0  0  0  0  0  0  0  0  0  0  0  0
   66.1473  -74.5725  -14.5792 C   0  0  0  0  0  0  0  0  0  0  0  0
   65.0542  -75.0318  -13.9960 N   0  0  0  0  0  0  0  0  0  0  0  0
   64.4039  -76.0667  -14.5207 C   0  0  0  0  0  0  0  0  0  0  0  0
   64.8546  -76.6376  -15.6316 N   0  0  0  0  0  0  0  0  0  0  0  0
   65.9527  -76.1734  -16.2143 C   0  0  0  0  0  0  0  0  0  0  0  0
   66.5949  -75.1359  -15.6881 N   0  0  0  0  0  0  0  0  0  0  0  0
   66.4153  -76.7531  -17.3461 O   0  0  0  0  0  0  0  0  0  0  0  0
   66.5054  -75.7218  -18.3312 C   0  0  0  0  0  0  0  0  0  0  0  0
   63.2581  -76.5483  -13.9088 N   0  0  0  0  0  0  0  0  0  0  0  0
   62.0448  -76.2035  -14.3837 C   0  0  0  0  0  0  0  0  0  0  0  0
   61.9558  -75.4698  -15.3488 O   0  0  0  0  0  0  0  0  0  0  0  0
   60.9301  -76.6721  -13.7883 N   0  0  0  0  0  0  0  0  0  0  0  0
   59.4411  -76.1500  -14.2910 S   0  0  0  0  0  0  0  0  0  0  0  0
   58.4984  -77.0044  -13.6580 O   0  0  0  0  0  0  0  0  0  0  0  0
   59.4712  -74.7336  -14.1809 O   0  0  0  0  0  0  0  0  0  0  0  0
   59.3166  -76.4936  -16.0147 C   0  0  0  0  0  0  0  0  0  0  0  0
   59.7305  -77.7165  -16.5073 C   0  0  0  0  0  0  0  0  0  0  0  0
   59.6331  -77.9862  -17.8598 C   0  0  0  0  0  0  0  0  0  0  0  0
   59.1221  -77.0327  -18.7201 C   0  0  0  0  0  0  0  0  0  0  0  0
   58.7081  -75.8088  -18.2286 C   0  0  0  0  0  0  0  0  0  0  0  0
   58.7993  -75.5408  -16.8746 C   0  0  0  0  0  0  0  0  0  0  0  0
   58.2792  -74.0042  -16.2565 Cl  0  0  0  0  0  0  0  0  0  0  0  0
   67.6295  -73.7608  -13.2759 H   0  0  0  0  0  0  0  0  0  0  0  0
   67.3735  -72.8370  -14.7756 H   0  0  0  0  0  0  0  0  0  0  0  0
   66.1739  -72.7536  -13.4632 H   0  0  0  0  0  0  0  0  0  0  0  0
   66.8759  -76.1434  -19.2657 H   0  0  0  0  0  0  0  0  0  0  0  0
   65.5190  -75.2878  -18.4942 H   0  0  0  0  0  0  0  0  0  0  0  0
   67.1903  -74.9476  -17.9852 H   0  0  0  0  0  0  0  0  0  0  0  0
   63.3291  -77.1338  -13.1387 H   0  0  0  0  0  0  0  0  0  0  0  0
   61.0001  -77.3152  -13.0656 H   0  0  0  0  0  0  0  0  0  0  0  0
   60.1306  -78.4617  -15.8356 H   0  0  0  0  0  0  0  0  0  0  0  0
   59.9567  -78.9422  -18.2443 H   0  0  0  0  0  0  0  0  0  0  0  0
   59.0464  -77.2439  -19.7766 H   0  0  0  0  0  0  0  0  0  0  0  0
   58.3096  -75.0636  -18.9010 H   0  0  0  0  0  0  0  0  0  0  0  0
  1  2  1  0  0  0  0
  2  3  2  0  0  0  0
  3  4  1  0  0  0  0
  4  5  2  0  0  0  0
  5  6  1  0  0  0  0
  6  7  2  0  0  0  0
  2  7  1  0  0  0  0
  6  8  1  0  0  0  0
  8  9  1  0  0  0  0
  4 10  1  0  0  0  0
 10 11  1  0  0  0  0
 11 12  2  0  0  0  0
 11 13  1  0  0  0  0
 13 14  1  0  0  0  0
 14 15  2  0  0  0  0
 14 16  2  0  0  0  0
 14 17  1  0  0  0  0
 17 18  2  0  0  0  0
 18 19  1  0  0  0  0
 19 20  2  0  0  0  0
 20 21  1  0  0  0  0
 21 22  2  0  0  0  0
 17 22  1  0  0  0  0
 22 23  1  0  0  0  0
  1 24  1  0  0  0  0
  1 25  1  0  0  0  0
  1 26  1  0  0  0  0
  9 27  1  0  0  0  0
  9 28  1  0  0  0  0
  9 29  1  0  0  0  0
 10 30  1  0  0  0  0
 13 31  1  0  0  0  0
 18 32  1  0  0  0  0
 19 33  1  0  0  0  0
 20 34  1  0  0  0  0
 21 35  1  0  0  0  0
M  END
> <Gold.Version>
2021.2.0

> <Gold.Id.Protein>
5K6Q|5K6Q_protein|mol2

> <Gold.PLP.Fitness>
27.5548

> <Gold.PLP.PLP>
-19.6850

> <Gold.PLP.part.hbond>
-4.7198

> <Gold.PLP.part.metal>
0.0000

> <Gold.PLP.part.buried>
-5.3070

> <Gold.PLP.part.nonpolar>
-10.0820

> <Gold.PLP.part.repulsive>
0.4778

> <Gold.PLP.ligand.clash>
0.0000

> <Gold.PLP.ligand.torsion>
2.4049

> <Gold.PLP.Chemscore.Hbond>
3.1363

> <Gold.PLP.Chemscore.CHOScore>
0.0000

> <Gold.PLP.Chemscore.Metal>
0.0000

> <Gold.Chemscore.Hbonds>
donor molecule, donor type, donor heavy atom, donor atom, acceptor molecule, acceptor atom, score
      L1  H    10    30       P1  2230  0.98
      L1  H    13    31       P1  2230  0.42
      P1  H  2203  7120       L1    16  1.00
      P1  H  4717  8548       L1     8  0.74

> <Gold.PLP.Chemscore.Internal.Correction>
3.2706

> <Gold.Protein.RotatedTorsions>
[ 5877 1703 1702 1700 ] final  -74.65 input   60.01 | X-H torsion
[ 6057 1881 1880 1877 ] final  170.09 input   60.00 | X-H torsion
[ 7193 2255 2254 2251 ] final   17.92 input   60.00 | X-H torsion
[ 7182 2269 2268 2267 ] final   85.32 input   59.99 | X-H torsion
[ 6931 4361 4360 4357 ] final  -65.69 input   60.01 | X-H torsion
[ 8180 4471 4470 4468 ] final  -51.61 input   60.00 | X-H torsion
[ 8184 4473 4472 4470 ] final  -62.22 input   60.00 | X-H torsion
[ 8203 4505 4504 4503 ] final  179.17 input   60.00 | X-H torsion
[ 8212 4507 4506 4504 ] final -132.96 input   60.00 | X-H torsion
[ 8221 4509 4508 4506 ] final  143.00 input   60.00 | X-H torsion

> <Gold.Protein.ActiveResidues>
 TYR305  THR331  LEU332  MET333  LEU349  GLY350  MET351  HIS352  GLY353  ASN358 
 VAL372  ARG373  PHE374  ASP375  ASP376  ARG377  VAL378  THR379  GLY380  LYS381 
 LEU382  PHE385  ASN404  GLY508  GLY509  TRP574  ILE651  PRO652  SER653  GLY654 
 GLY655  FAD702  HOH839  HOH865  HOH881  HOH913  HOH945  HOH958  HOH960  HOH966 
 HOH968 

> <Gold.Protein.RotatedAtoms>
   59.9720  -72.8624   -3.7763 H   0  0  0  0  0  0  0  0  0  0  0  0  # atno 5877 bound_to 1703
   61.5953  -68.0255   -5.3768 H   0  0  0  0  0  0  0  0  0  0  0  0  # atno 6057 bound_to 1881
   68.5407  -80.8968  -11.5765 H   0  0  0  0  0  0  0  0  0  0  0  0  # atno 6931 bound_to 4361
   63.5939  -89.9360   -1.4667 H   0  0  0  0  0  0  0  0  0  0  0  0  # atno 7182 bound_to 2269
   61.9992  -89.6635   -1.1060 H   0  0  0  0  0  0  0  0  0  0  0  0  # atno 7183 bound_to 2269
   62.4051  -90.6096   -2.4051 H   0  0  0  0  0  0  0  0  0  0  0  0  # atno 7184 bound_to 2269
   62.2064  -80.3936   -5.7223 H   0  0  0  0  0  0  0  0  0  0  0  0  # atno 7193 bound_to 2255
   53.8225  -70.1398   -7.6563 H   0  0  0  0  0  0  0  0  0  0  0  0  # atno 8180 bound_to 4471
   51.3447  -67.9736   -9.2925 H   0  0  0  0  0  0  0  0  0  0  0  0  # atno 8184 bound_to 4473
   63.6254  -73.0595  -11.5003 H   0  0  0  0  0  0  0  0  0  0  0  0  # atno 8203 bound_to 4505
   62.7590  -69.0194  -10.3149 H   0  0  0  0  0  0  0  0  0  0  0  0  # atno 8212 bound_to 4507
   63.3824  -71.4003   -6.9875 H   0  0  0  0  0  0  0  0  0  0  0  0  # atno 8221 bound_to 4509
   59.7977  -74.3882   -3.2381 LP  0  0  0  0  0  0  0  0  0  0  0  0  # atno 9612 bound_to 1703
   61.2633  -73.6689   -3.2017 LP  0  0  0  0  0  0  0  0  0  0  0  0  # atno 9613 bound_to 1703
   62.9154  -67.0819   -5.2527 LP  0  0  0  0  0  0  0  0  0  0  0  0  # atno 9616 bound_to 1881
   61.9032  -67.2461   -3.9818 LP  0  0  0  0  0  0  0  0  0  0  0  0  # atno 9617 bound_to 1881
   60.9562  -79.3779   -5.9530 LP  0  0  0  0  0  0  0  0  0  0  0  0  # atno 9661 bound_to 2255
   60.6888  -80.8992   -5.4231 LP  0  0  0  0  0  0  0  0  0  0  0  0  # atno 9662 bound_to 2255
   69.2526  -81.4765  -12.9201 LP  0  0  0  0  0  0  0  0  0  0  0  0  # atno 9687 bound_to 4361
   70.1416  -81.1887  -11.5809 LP  0  0  0  0  0  0  0  0  0  0  0  0  # atno 9688 bound_to 4361
   52.5039  -69.7841   -8.5410 LP  0  0  0  0  0  0  0  0  0  0  0  0  # atno 9695 bound_to 4471
   52.5620  -69.3827   -6.9592 LP  0  0  0  0  0  0  0  0  0  0  0  0  # atno 9696 bound_to 4471
   50.6801  -66.9232   -8.2423 LP  0  0  0  0  0  0  0  0  0  0  0  0  # atno 9697 bound_to 4473
   51.1342  -68.4088   -7.7387 LP  0  0  0  0  0  0  0  0  0  0  0  0  # atno 9698 bound_to 4473
   65.2458  -72.9122  -11.5246 LP  0  0  0  0  0  0  0  0  0  0  0  0  # atno 9706 bound_to 4505
   64.3080  -71.7583  -12.1996 LP  0  0  0  0  0  0  0  0  0  0  0  0  # atno 9707 bound_to 4505
   62.5414  -69.8801  -11.6787 LP  0  0  0  0  0  0  0  0  0  0  0  0  # atno 9708 bound_to 4507
   64.0468  -69.6378  -11.0941 LP  0  0  0  0  0  0  0  0  0  0  0  0  # atno 9709 bound_to 4507
   63.6139  -72.3223   -8.3082 LP  0  0  0  0  0  0  0  0  0  0  0  0  # atno 9710 bound_to 4509
   62.1238  -72.1877   -7.6539 LP  0  0  0  0  0  0  0  0  0  0  0  0  # atno 9711 bound_to 4509

$$$$
