C12H12ClN5O4S|Chlorsulfuron|mol|1|dock40
  -GOLD-   2292221543D 1   1.00000     0.00000
 
 35 36  0  0  0  0  0  0  0  0  1 V2000
   58.0543  -77.6074  -17.0862 C   0  0  0  0  0  0  0  0  0  0  0  0
   59.0096  -77.0143  -16.0828 C   0  0  0  0  0  0  0  0  0  0  0  0
   60.0448  -77.7192  -15.6617 N   0  0  0  0  0  0  0  0  0  0  0  0
   60.8895  -77.1982  -14.7761 C   0  0  0  0  0  0  0  0  0  0  0  0
   60.6911  -75.9686  -14.3157 N   0  0  0  0  0  0  0  0  0  0  0  0
   59.6502  -75.2639  -14.7410 C   0  0  0  0  0  0  0  0  0  0  0  0
   58.8130  -75.7880  -15.6299 N   0  0  0  0  0  0  0  0  0  0  0  0
   59.4445  -74.0108  -14.2737 O   0  0  0  0  0  0  0  0  0  0  0  0
   59.4961  -73.1355  -15.4020 C   0  0  0  0  0  0  0  0  0  0  0  0
   61.9746  -77.9376  -14.3344 N   0  0  0  0  0  0  0  0  0  0  0  0
   62.8379  -78.4652  -15.2248 C   0  0  0  0  0  0  0  0  0  0  0  0
   62.6644  -78.2923  -16.4155 O   0  0  0  0  0  0  0  0  0  0  0  0
   63.8935  -79.1846  -14.7951 N   0  0  0  0  0  0  0  0  0  0  0  0
   64.8825  -79.9380  -15.8890 S   0  0  0  0  0  0  0  0  0  0  0  0
   65.1670  -78.9661  -16.8858 O   0  0  0  0  0  0  0  0  0  0  0  0
   65.8524  -80.6335  -15.1177 O   0  0  0  0  0  0  0  0  0  0  0  0
   63.9280  -81.1823  -16.6924 C   0  0  0  0  0  0  0  0  0  0  0  0
   63.8177  -81.1870  -18.0699 C   0  0  0  0  0  0  0  0  0  0  0  0
   63.0688  -82.1632  -18.7005 C   0  0  0  0  0  0  0  0  0  0  0  0
   62.4295  -83.1347  -17.9535 C   0  0  0  0  0  0  0  0  0  0  0  0
   62.5387  -83.1309  -16.5755 C   0  0  0  0  0  0  0  0  0  0  0  0
   63.2933  -82.1582  -15.9445 C   0  0  0  0  0  0  0  0  0  0  0  0
   63.4313  -82.1530  -14.2140 Cl  0  0  0  0  0  0  0  0  0  0  0  0
   57.2541  -78.1294  -16.5617 H   0  0  0  0  0  0  0  0  0  0  0  0
   57.6291  -76.8114  -17.6976 H   0  0  0  0  0  0  0  0  0  0  0  0
   58.5888  -78.3103  -17.7253 H   0  0  0  0  0  0  0  0  0  0  0  0
   59.3347  -72.1089  -15.0731 H   0  0  0  0  0  0  0  0  0  0  0  0
   60.4729  -73.2149  -15.8791 H   0  0  0  0  0  0  0  0  0  0  0  0
   58.7200  -73.4150  -16.1146 H   0  0  0  0  0  0  0  0  0  0  0  0
   62.1130  -78.0756  -13.3843 H   0  0  0  0  0  0  0  0  0  0  0  0
   64.0740  -79.2609  -13.8452 H   0  0  0  0  0  0  0  0  0  0  0  0
   64.3164  -80.4277  -18.6540 H   0  0  0  0  0  0  0  0  0  0  0  0
   62.9828  -82.1665  -19.7770 H   0  0  0  0  0  0  0  0  0  0  0  0
   61.8443  -83.8969  -18.4466 H   0  0  0  0  0  0  0  0  0  0  0  0
   62.0385  -83.8896  -15.9919 H   0  0  0  0  0  0  0  0  0  0  0  0
  1  2  1  0  0  0  0
  2  3  2  0  0  0  0
  3  4  1  0  0  0  0
  4  5  2  0  0  0  0
  5  6  1  0  0  0  0
  6  7  2  0  0  0  0
  2  7  1  0  0  0  0
  6  8  1  0  0  0  0
  8  9  1  0  0  0  0
  4 10  1  0  0  0  0
 10 11  1  0  0  0  0
 11 12  2  0  0  0  0
 11 13  1  0  0  0  0
 13 14  1  0  0  0  0
 14 15  2  0  0  0  0
 14 16  2  0  0  0  0
 14 17  1  0  0  0  0
 17 18  2  0  0  0  0
 18 19  1  0  0  0  0
 19 20  2  0  0  0  0
 20 21  1  0  0  0  0
 21 22  2  0  0  0  0
 17 22  1  0  0  0  0
 22 23  1  0  0  0  0
  1 24  1  0  0  0  0
  1 25  1  0  0  0  0
  1 26  1  0  0  0  0
  9 27  1  0  0  0  0
  9 28  1  0  0  0  0
  9 29  1  0  0  0  0
 10 30  1  0  0  0  0
 13 31  1  0  0  0  0
 18 32  1  0  0  0  0
 19 33  1  0  0  0  0
 20 34  1  0  0  0  0
 21 35  1  0  0  0  0
M  END
> <Gold.Version>
2021.2.0

> <Gold.Id.Protein>
5K6Q|5K6Q_protein|mol2

> <Gold.PLP.Fitness>
28.9676

> <Gold.PLP.PLP>
-15.4708

> <Gold.PLP.part.hbond>
-6.5271

> <Gold.PLP.part.metal>
0.0000

> <Gold.PLP.part.buried>
-4.5460

> <Gold.PLP.part.nonpolar>
-4.6239

> <Gold.PLP.part.repulsive>
0.4821

> <Gold.PLP.ligand.clash>
0.0000

> <Gold.PLP.ligand.torsion>
2.0749

> <Gold.PLP.Chemscore.Hbond>
4.7920

> <Gold.PLP.Chemscore.CHOScore>
0.0000

> <Gold.PLP.Chemscore.Metal>
0.0000

> <Gold.Chemscore.Hbonds>
donor molecule, donor type, donor heavy atom, donor atom, acceptor molecule, acceptor atom, score
      L1  H    10    30       P1  2230  1.00
      L1  H    13    31       P1  2231  1.00
      P1  H  2203  7120       L1     8  0.91
      P1  H  2242  7198       L1    16  0.88
      P1  H  4723  8580       L1    16  1.00

> <Gold.PLP.Chemscore.Internal.Correction>
3.2706

> <Gold.Protein.RotatedTorsions>
[ 5877 1703 1702 1700 ] final  113.17 input   60.01 | X-H torsion
[ 6057 1881 1880 1877 ] final  -94.50 input   60.00 | X-H torsion
[ 7193 2255 2254 2251 ] final  177.52 input   60.00 | X-H torsion
[ 7182 2269 2268 2267 ] final  -10.18 input   59.99 | X-H torsion
[ 6931 4361 4360 4357 ] final -169.96 input   60.01 | X-H torsion
[ 8180 4471 4470 4468 ] final   30.54 input   60.00 | X-H torsion
[ 8184 4473 4472 4470 ] final   72.91 input   60.00 | X-H torsion
[ 8203 4505 4504 4503 ] final -169.40 input   60.00 | X-H torsion
[ 8212 4507 4506 4504 ] final -132.33 input   60.00 | X-H torsion
[ 8221 4509 4508 4506 ] final   76.81 input   60.00 | X-H torsion

> <Gold.Protein.ActiveResidues>
 TYR305  THR331  LEU332  MET333  LEU349  GLY350  MET351  HIS352  GLY353  ASN358 
 VAL372  ARG373  PHE374  ASP375  ASP376  ARG377  VAL378  THR379  GLY380  LYS381 
 LEU382  PHE385  ASN404  GLY508  GLY509  TRP574  ILE651  PRO652  SER653  GLY654 
 GLY655  FAD702  HOH839  HOH865  HOH881  HOH913  HOH945  HOH958  HOH960  HOH966 
 HOH968 

> <Gold.Protein.RotatedAtoms>
   60.5966  -74.4614   -3.0397 H   0  0  0  0  0  0  0  0  0  0  0  0  # atno 5877 bound_to 1703
   61.6110  -67.4935   -4.0979 H   0  0  0  0  0  0  0  0  0  0  0  0  # atno 6057 bound_to 1881
   69.0052  -81.4199  -12.8788 H   0  0  0  0  0  0  0  0  0  0  0  0  # atno 6931 bound_to 4361
   62.8102  -90.6262   -2.4242 H   0  0  0  0  0  0  0  0  0  0  0  0  # atno 7182 bound_to 2269
   63.4131  -89.7216   -1.1729 H   0  0  0  0  0  0  0  0  0  0  0  0  # atno 7183 bound_to 2269
   61.7745  -89.8611   -1.3804 H   0  0  0  0  0  0  0  0  0  0  0  0  # atno 7184 bound_to 2269
   60.3701  -80.3680   -5.5695 H   0  0  0  0  0  0  0  0  0  0  0  0  # atno 7193 bound_to 2255
   53.1155  -69.5912   -6.8121 H   0  0  0  0  0  0  0  0  0  0  0  0  # atno 8180 bound_to 4471
   51.0335  -68.2239   -7.6086 H   0  0  0  0  0  0  0  0  0  0  0  0  # atno 8184 bound_to 4473
   63.5340  -72.9188  -11.5817 H   0  0  0  0  0  0  0  0  0  0  0  0  # atno 8203 bound_to 4505
   62.7684  -69.0179  -10.3113 H   0  0  0  0  0  0  0  0  0  0  0  0  # atno 8212 bound_to 4507
   63.9602  -71.8091   -7.7252 H   0  0  0  0  0  0  0  0  0  0  0  0  # atno 8221 bound_to 4509
   60.9860  -72.9590   -3.5287 LP  0  0  0  0  0  0  0  0  0  0  0  0  # atno 9612 bound_to 1703
   59.4460  -73.4877   -3.6530 LP  0  0  0  0  0  0  0  0  0  0  0  0  # atno 9613 bound_to 1703
   61.8829  -67.9359   -5.6402 LP  0  0  0  0  0  0  0  0  0  0  0  0  # atno 9616 bound_to 1881
   62.9199  -66.9277   -4.8820 LP  0  0  0  0  0  0  0  0  0  0  0  0  # atno 9617 bound_to 1881
   61.9016  -80.9161   -5.5241 LP  0  0  0  0  0  0  0  0  0  0  0  0  # atno 9661 bound_to 2255
   61.5927  -79.3868   -6.0060 LP  0  0  0  0  0  0  0  0  0  0  0  0  # atno 9662 bound_to 2255
   70.2226  -81.2799  -11.8081 LP  0  0  0  0  0  0  0  0  0  0  0  0  # atno 9687 bound_to 4361
   68.7038  -80.8585  -11.3814 LP  0  0  0  0  0  0  0  0  0  0  0  0  # atno 9688 bound_to 4361
   53.6255  -70.2079   -8.2290 LP  0  0  0  0  0  0  0  0  0  0  0  0  # atno 9695 bound_to 4471
   52.1524  -69.5114   -8.1214 LP  0  0  0  0  0  0  0  0  0  0  0  0  # atno 9696 bound_to 4471
   51.4030  -68.1925   -9.1930 LP  0  0  0  0  0  0  0  0  0  0  0  0  # atno 9697 bound_to 4473
   50.7247  -66.8873   -8.4838 LP  0  0  0  0  0  0  0  0  0  0  0  0  # atno 9698 bound_to 4473
   65.1502  -73.0549  -11.4490 LP  0  0  0  0  0  0  0  0  0  0  0  0  # atno 9706 bound_to 4505
   64.4956  -71.7572  -12.1933 LP  0  0  0  0  0  0  0  0  0  0  0  0  # atno 9707 bound_to 4505
   62.5333  -69.8761  -11.6737 LP  0  0  0  0  0  0  0  0  0  0  0  0  # atno 9708 bound_to 4507
   64.0454  -69.6433  -11.1027 LP  0  0  0  0  0  0  0  0  0  0  0  0  # atno 9709 bound_to 4507
   62.6061  -72.5289   -8.2697 LP  0  0  0  0  0  0  0  0  0  0  0  0  # atno 9710 bound_to 4509
   62.5498  -71.5694   -6.9496 LP  0  0  0  0  0  0  0  0  0  0  0  0  # atno 9711 bound_to 4509

$$$$
