C12H12ClN5O4S|Chlorsulfuron|mol|1|dock32
  -GOLD-   2292221543D 1   1.00000     0.00000
 
 35 36  0  0  0  0  0  0  0  0  1 V2000
   58.3231  -75.7942  -14.0835 C   0  0  0  0  0  0  0  0  0  0  0  0
   59.4951  -75.5583  -15.0012 C   0  0  0  0  0  0  0  0  0  0  0  0
   60.6841  -75.2838  -14.4946 N   0  0  0  0  0  0  0  0  0  0  0  0
   61.7202  -75.0752  -15.3021 C   0  0  0  0  0  0  0  0  0  0  0  0
   61.5580  -75.1431  -16.6183 N   0  0  0  0  0  0  0  0  0  0  0  0
   60.3623  -75.4191  -17.1232 C   0  0  0  0  0  0  0  0  0  0  0  0
   59.3323  -75.6318  -16.3110 N   0  0  0  0  0  0  0  0  0  0  0  0
   60.1930  -75.4886  -18.4639 O   0  0  0  0  0  0  0  0  0  0  0  0
   59.0572  -74.6808  -18.7793 C   0  0  0  0  0  0  0  0  0  0  0  0
   62.9667  -74.7870  -14.7708 N   0  0  0  0  0  0  0  0  0  0  0  0
   64.0743  -75.3212  -15.3224 C   0  0  0  0  0  0  0  0  0  0  0  0
   63.9795  -76.0561  -16.2862 O   0  0  0  0  0  0  0  0  0  0  0  0
   65.2871  -75.0409  -14.8055 N   0  0  0  0  0  0  0  0  0  0  0  0
   66.6357  -75.7944  -15.4019 S   0  0  0  0  0  0  0  0  0  0  0  0
   67.6796  -75.5016  -14.4834 O   0  0  0  0  0  0  0  0  0  0  0  0
   66.2143  -77.0978  -15.7800 O   0  0  0  0  0  0  0  0  0  0  0  0
   67.0748  -74.9796  -16.9012 C   0  0  0  0  0  0  0  0  0  0  0  0
   66.5567  -75.4197  -18.1043 C   0  0  0  0  0  0  0  0  0  0  0  0
   66.9012  -74.7805  -19.2809 C   0  0  0  0  0  0  0  0  0  0  0  0
   67.7643  -73.7013  -19.2546 C   0  0  0  0  0  0  0  0  0  0  0  0
   68.2836  -73.2603  -18.0518 C   0  0  0  0  0  0  0  0  0  0  0  0
   67.9341  -73.8954  -16.8735 C   0  0  0  0  0  0  0  0  0  0  0  0
   68.5854  -73.3418  -15.3625 Cl  0  0  0  0  0  0  0  0  0  0  0  0
   57.8194  -74.8479  -13.8867 H   0  0  0  0  0  0  0  0  0  0  0  0
   57.6254  -76.4859  -14.5557 H   0  0  0  0  0  0  0  0  0  0  0  0
   58.6769  -76.2196  -13.1443 H   0  0  0  0  0  0  0  0  0  0  0  0
   58.8809  -74.7059  -19.8546 H   0  0  0  0  0  0  0  0  0  0  0  0
   58.1811  -75.0666  -18.2582 H   0  0  0  0  0  0  0  0  0  0  0  0
   59.2435  -73.6537  -18.4655 H   0  0  0  0  0  0  0  0  0  0  0  0
   63.0424  -74.2007  -14.0017 H   0  0  0  0  0  0  0  0  0  0  0  0
   65.3699  -74.3977  -14.0842 H   0  0  0  0  0  0  0  0  0  0  0  0
   65.8828  -76.2634  -18.1256 H   0  0  0  0  0  0  0  0  0  0  0  0
   66.4960  -75.1248  -20.2209 H   0  0  0  0  0  0  0  0  0  0  0  0
   68.0332  -73.2025  -20.1740 H   0  0  0  0  0  0  0  0  0  0  0  0
   68.9585  -72.4175  -18.0314 H   0  0  0  0  0  0  0  0  0  0  0  0
  1  2  1  0  0  0  0
  2  3  2  0  0  0  0
  3  4  1  0  0  0  0
  4  5  2  0  0  0  0
  5  6  1  0  0  0  0
  6  7  2  0  0  0  0
  2  7  1  0  0  0  0
  6  8  1  0  0  0  0
  8  9  1  0  0  0  0
  4 10  1  0  0  0  0
 10 11  1  0  0  0  0
 11 12  2  0  0  0  0
 11 13  1  0  0  0  0
 13 14  1  0  0  0  0
 14 15  2  0  0  0  0
 14 16  2  0  0  0  0
 14 17  1  0  0  0  0
 17 18  2  0  0  0  0
 18 19  1  0  0  0  0
 19 20  2  0  0  0  0
 20 21  1  0  0  0  0
 21 22  2  0  0  0  0
 17 22  1  0  0  0  0
 22 23  1  0  0  0  0
  1 24  1  0  0  0  0
  1 25  1  0  0  0  0
  1 26  1  0  0  0  0
  9 27  1  0  0  0  0
  9 28  1  0  0  0  0
  9 29  1  0  0  0  0
 10 30  1  0  0  0  0
 13 31  1  0  0  0  0
 18 32  1  0  0  0  0
 19 33  1  0  0  0  0
 20 34  1  0  0  0  0
 21 35  1  0  0  0  0
M  END
> <Gold.Version>
2021.2.0

> <Gold.Id.Protein>
5K6Q|5K6Q_protein|mol2

> <Gold.PLP.Fitness>
21.2332

> <Gold.PLP.PLP>
-20.8818

> <Gold.PLP.part.hbond>
-3.8163

> <Gold.PLP.part.metal>
0.0000

> <Gold.PLP.part.buried>
-3.9137

> <Gold.PLP.part.nonpolar>
-14.7107

> <Gold.PLP.part.repulsive>
0.3656

> <Gold.PLP.ligand.clash>
0.0000

> <Gold.PLP.ligand.torsion>
1.8691

> <Gold.PLP.Chemscore.Hbond>
0.2730

> <Gold.PLP.Chemscore.CHOScore>
0.0000

> <Gold.PLP.Chemscore.Metal>
0.0000

> <Gold.Chemscore.Hbonds>
donor molecule, donor type, donor heavy atom, donor atom, acceptor molecule, acceptor atom, score
      P1  H  2239  7163       L1    15  0.27

> <Gold.PLP.Chemscore.Internal.Correction>
3.2706

> <Gold.Protein.RotatedTorsions>
[ 5877 1703 1702 1700 ] final  150.93 input   60.01 | X-H torsion
[ 6057 1881 1880 1877 ] final   65.04 input   60.00 | X-H torsion
[ 7193 2255 2254 2251 ] final  -44.82 input   60.00 | X-H torsion
[ 7182 2269 2268 2267 ] final  -73.42 input   59.99 | X-H torsion
[ 6931 4361 4360 4357 ] final  -34.70 input   60.01 | X-H torsion
[ 8180 4471 4470 4468 ] final  -67.83 input   60.00 | X-H torsion
[ 8184 4473 4472 4470 ] final  -43.93 input   60.00 | X-H torsion
[ 8203 4505 4504 4503 ] final   -7.40 input   60.00 | X-H torsion
[ 8212 4507 4506 4504 ] final   54.89 input   60.00 | X-H torsion
[ 8221 4509 4508 4506 ] final  -93.37 input   60.00 | X-H torsion

> <Gold.Protein.ActiveResidues>
 TYR305  THR331  LEU332  MET333  LEU349  GLY350  MET351  HIS352  GLY353  ASN358 
 VAL372  ARG373  PHE374  ASP375  ASP376  ARG377  VAL378  THR379  GLY380  LYS381 
 LEU382  PHE385  ASN404  GLY508  GLY509  TRP574  ILE651  PRO652  SER653  GLY654 
 GLY655  FAD702  HOH839  HOH865  HOH881  HOH913  HOH945  HOH958  HOH960  HOH966 
 HOH968 

> <Gold.Protein.RotatedAtoms>
   60.0027  -74.4744   -3.1598 H   0  0  0  0  0  0  0  0  0  0  0  0  # atno 5877 bound_to 1703
   62.8388  -67.2144   -5.4435 H   0  0  0  0  0  0  0  0  0  0  0  0  # atno 6057 bound_to 1881
   68.9129  -80.8535  -11.2450 H   0  0  0  0  0  0  0  0  0  0  0  0  # atno 6931 bound_to 4361
   61.8863  -90.3922   -2.1106 H   0  0  0  0  0  0  0  0  0  0  0  0  # atno 7182 bound_to 2269
   63.5364  -90.3073   -1.9781 H   0  0  0  0  0  0  0  0  0  0  0  0  # atno 7183 bound_to 2269
   62.5754  -89.5093   -0.8886 H   0  0  0  0  0  0  0  0  0  0  0  0  # atno 7184 bound_to 2269
   61.8439  -79.5261   -5.9792 H   0  0  0  0  0  0  0  0  0  0  0  0  # atno 7193 bound_to 2255
   53.7791  -70.1893   -7.9122 H   0  0  0  0  0  0  0  0  0  0  0  0  # atno 8180 bound_to 4471
   51.4118  -68.2304   -9.1581 H   0  0  0  0  0  0  0  0  0  0  0  0  # atno 8184 bound_to 4473
   65.0905  -72.0220  -12.0216 H   0  0  0  0  0  0  0  0  0  0  0  0  # atno 8203 bound_to 4505
   63.3494  -70.0202  -11.7776 H   0  0  0  0  0  0  0  0  0  0  0  0  # atno 8212 bound_to 4507
   62.1399  -72.2174   -7.7035 H   0  0  0  0  0  0  0  0  0  0  0  0  # atno 8221 bound_to 4509
   61.2591  -73.4480   -3.2862 LP  0  0  0  0  0  0  0  0  0  0  0  0  # atno 9612 bound_to 1703
   59.7710  -72.9856   -3.7745 LP  0  0  0  0  0  0  0  0  0  0  0  0  # atno 9613 bound_to 1703
   62.1085  -67.1122   -3.9928 LP  0  0  0  0  0  0  0  0  0  0  0  0  # atno 9616 bound_to 1881
   61.4580  -68.0325   -5.1746 LP  0  0  0  0  0  0  0  0  0  0  0  0  # atno 9617 bound_to 1881
   60.3528  -80.0950   -5.6613 LP  0  0  0  0  0  0  0  0  0  0  0  0  # atno 9661 bound_to 2255
   61.6572  -81.0557   -5.4562 LP  0  0  0  0  0  0  0  0  0  0  0  0  # atno 9662 bound_to 2255
   68.7834  -81.3469  -12.7903 LP  0  0  0  0  0  0  0  0  0  0  0  0  # atno 9687 bound_to 4361
   70.2360  -81.3619  -12.0444 LP  0  0  0  0  0  0  0  0  0  0  0  0  # atno 9688 bound_to 4361
   52.3181  -69.6607   -8.3959 LP  0  0  0  0  0  0  0  0  0  0  0  0  # atno 9695 bound_to 4471
   52.7916  -69.4563   -6.8465 LP  0  0  0  0  0  0  0  0  0  0  0  0  # atno 9696 bound_to 4471
   50.7371  -66.8875   -8.5343 LP  0  0  0  0  0  0  0  0  0  0  0  0  # atno 9697 bound_to 4473
   51.0097  -68.1857   -7.5820 LP  0  0  0  0  0  0  0  0  0  0  0  0  # atno 9698 bound_to 4473
   63.4969  -72.3326  -11.9110 LP  0  0  0  0  0  0  0  0  0  0  0  0  # atno 9706 bound_to 4505
   64.5815  -73.3826  -11.2882 LP  0  0  0  0  0  0  0  0  0  0  0  0  # atno 9707 bound_to 4505
   63.7848  -69.1938  -10.4451 LP  0  0  0  0  0  0  0  0  0  0  0  0  # atno 9708 bound_to 4507
   62.2088  -69.3163  -10.8547 LP  0  0  0  0  0  0  0  0  0  0  0  0  # atno 9709 bound_to 4507
   63.3299  -71.3944   -6.9588 LP  0  0  0  0  0  0  0  0  0  0  0  0  # atno 9710 bound_to 4509
   63.6590  -72.2927   -8.2822 LP  0  0  0  0  0  0  0  0  0  0  0  0  # atno 9711 bound_to 4509

$$$$
