C12H12ClN5O4S|Chlorsulfuron|mol|1|dock11
  -GOLD-   2292221533D 1   1.00000     0.00000
 
 35 36  0  0  0  0  0  0  0  0  1 V2000
   67.3729  -73.9837  -13.7699 C   0  0  0  0  0  0  0  0  0  0  0  0
   66.4467  -74.9258  -14.4952 C   0  0  0  0  0  0  0  0  0  0  0  0
   65.3080  -75.2925  -13.9343 N   0  0  0  0  0  0  0  0  0  0  0  0
   64.4887  -76.1239  -14.5721 C   0  0  0  0  0  0  0  0  0  0  0  0
   64.8167  -76.5847  -15.7734 N   0  0  0  0  0  0  0  0  0  0  0  0
   65.9612  -76.2140  -16.3334 C   0  0  0  0  0  0  0  0  0  0  0  0
   66.7729  -75.3790  -15.6934 N   0  0  0  0  0  0  0  0  0  0  0  0
   66.2991  -76.6820  -17.5572 O   0  0  0  0  0  0  0  0  0  0  0  0
   66.4194  -75.5457  -18.4153 C   0  0  0  0  0  0  0  0  0  0  0  0
   63.2950  -76.5087  -13.9837 N   0  0  0  0  0  0  0  0  0  0  0  0
   62.1248  -76.0535  -14.4735 C   0  0  0  0  0  0  0  0  0  0  0  0
   62.1167  -75.3053  -15.4315 O   0  0  0  0  0  0  0  0  0  0  0  0
   60.9634  -76.4278  -13.9010 N   0  0  0  0  0  0  0  0  0  0  0  0
   59.5347  -75.7716  -14.4209 S   0  0  0  0  0  0  0  0  0  0  0  0
   58.5123  -76.6070  -13.8957 O   0  0  0  0  0  0  0  0  0  0  0  0
   59.6489  -74.3727  -14.1987 O   0  0  0  0  0  0  0  0  0  0  0  0
   59.4674  -75.9745  -16.1698 C   0  0  0  0  0  0  0  0  0  0  0  0
   59.7235  -74.9003  -17.0006 C   0  0  0  0  0  0  0  0  0  0  0  0
   59.6706  -75.0593  -18.3730 C   0  0  0  0  0  0  0  0  0  0  0  0
   59.3611  -76.2926  -18.9149 C   0  0  0  0  0  0  0  0  0  0  0  0
   59.1043  -77.3678  -18.0850 C   0  0  0  0  0  0  0  0  0  0  0  0
   59.1635  -77.2109  -16.7118 C   0  0  0  0  0  0  0  0  0  0  0  0
   58.8416  -78.5608  -15.6689 Cl  0  0  0  0  0  0  0  0  0  0  0  0
   68.0692  -74.5577  -13.1585 H   0  0  0  0  0  0  0  0  0  0  0  0
   67.9299  -73.3912  -14.4957 H   0  0  0  0  0  0  0  0  0  0  0  0
   66.7895  -73.3209  -13.1308 H   0  0  0  0  0  0  0  0  0  0  0  0
   66.6919  -75.8748  -19.4180 H   0  0  0  0  0  0  0  0  0  0  0  0
   65.4673  -75.0163  -18.4528 H   0  0  0  0  0  0  0  0  0  0  0  0
   67.1907  -74.8791  -18.0295 H   0  0  0  0  0  0  0  0  0  0  0  0
   63.3015  -77.1057  -13.2191 H   0  0  0  0  0  0  0  0  0  0  0  0
   60.9646  -77.0817  -13.1845 H   0  0  0  0  0  0  0  0  0  0  0  0
   59.9646  -73.9362  -16.5777 H   0  0  0  0  0  0  0  0  0  0  0  0
   59.8708  -74.2195  -19.0219 H   0  0  0  0  0  0  0  0  0  0  0  0
   59.3197  -76.4162  -19.9871 H   0  0  0  0  0  0  0  0  0  0  0  0
   58.8617  -78.3312  -18.5085 H   0  0  0  0  0  0  0  0  0  0  0  0
  1  2  1  0  0  0  0
  2  3  2  0  0  0  0
  3  4  1  0  0  0  0
  4  5  2  0  0  0  0
  5  6  1  0  0  0  0
  6  7  2  0  0  0  0
  2  7  1  0  0  0  0
  6  8  1  0  0  0  0
  8  9  1  0  0  0  0
  4 10  1  0  0  0  0
 10 11  1  0  0  0  0
 11 12  2  0  0  0  0
 11 13  1  0  0  0  0
 13 14  1  0  0  0  0
 14 15  2  0  0  0  0
 14 16  2  0  0  0  0
 14 17  1  0  0  0  0
 17 18  2  0  0  0  0
 18 19  1  0  0  0  0
 19 20  2  0  0  0  0
 20 21  1  0  0  0  0
 21 22  2  0  0  0  0
 17 22  1  0  0  0  0
 22 23  1  0  0  0  0
  1 24  1  0  0  0  0
  1 25  1  0  0  0  0
  1 26  1  0  0  0  0
  9 27  1  0  0  0  0
  9 28  1  0  0  0  0
  9 29  1  0  0  0  0
 10 30  1  0  0  0  0
 13 31  1  0  0  0  0
 18 32  1  0  0  0  0
 19 33  1  0  0  0  0
 20 34  1  0  0  0  0
 21 35  1  0  0  0  0
M  END
> <Gold.Version>
2021.2.0

> <Gold.Id.Protein>
5K6Q|5K6Q_protein|mol2

> <Gold.PLP.Fitness>
28.7077

> <Gold.PLP.PLP>
-21.2439

> <Gold.PLP.part.hbond>
-4.3429

> <Gold.PLP.part.metal>
0.0000

> <Gold.PLP.part.buried>
-5.3182

> <Gold.PLP.part.nonpolar>
-12.8898

> <Gold.PLP.part.repulsive>
0.4445

> <Gold.PLP.ligand.clash>
0.0000

> <Gold.PLP.ligand.torsion>
2.1998

> <Gold.PLP.Chemscore.Hbond>
2.8619

> <Gold.PLP.Chemscore.CHOScore>
0.0000

> <Gold.PLP.Chemscore.Metal>
0.0000

> <Gold.Chemscore.Hbonds>
donor molecule, donor type, donor heavy atom, donor atom, acceptor molecule, acceptor atom, score
      L1  H    10    30       P1  2230  0.94
      L1  H    13    31       P1  2230  0.09
      P1  H  2203  7120       L1    16  1.00
      P1  H  4717  8548       L1     8  0.83

> <Gold.PLP.Chemscore.Internal.Correction>
3.2778

> <Gold.Protein.RotatedTorsions>
[ 5877 1703 1702 1700 ] final  114.55 input   60.01 | X-H torsion
[ 6057 1881 1880 1877 ] final  151.28 input   60.00 | X-H torsion
[ 7193 2255 2254 2251 ] final -144.95 input   60.00 | X-H torsion
[ 7182 2269 2268 2267 ] final  -14.55 input   59.99 | X-H torsion
[ 6931 4361 4360 4357 ] final   45.14 input   60.01 | X-H torsion
[ 8180 4471 4470 4468 ] final  150.58 input   60.00 | X-H torsion
[ 8184 4473 4472 4470 ] final -103.05 input   60.00 | X-H torsion
[ 8203 4505 4504 4503 ] final  178.06 input   60.00 | X-H torsion
[ 8212 4507 4506 4504 ] final  102.21 input   60.00 | X-H torsion
[ 8221 4509 4508 4506 ] final -108.76 input   60.00 | X-H torsion

> <Gold.Protein.ActiveResidues>
 TYR305  THR331  LEU332  MET333  LEU349  GLY350  MET351  HIS352  GLY353  ASN358 
 VAL372  ARG373  PHE374  ASP375  ASP376  ARG377  VAL378  THR379  GLY380  LYS381 
 LEU382  PHE385  ASN404  GLY508  GLY509  TRP574  ILE651  PRO652  SER653  GLY654 
 GLY655  FAD702  HOH839  HOH865  HOH881  HOH913  HOH945  HOH958  HOH960  HOH966 
 HOH968 

> <Gold.Protein.RotatedAtoms>
   60.5751  -74.4685   -3.0415 H   0  0  0  0  0  0  0  0  0  0  0  0  # atno 5877 bound_to 1703
   61.8113  -67.9646   -5.5847 H   0  0  0  0  0  0  0  0  0  0  0  0  # atno 6057 bound_to 1881
   70.0593  -81.1375  -11.4657 H   0  0  0  0  0  0  0  0  0  0  0  0  # atno 6931 bound_to 4361
   62.7376  -90.6307   -2.4311 H   0  0  0  0  0  0  0  0  0  0  0  0  # atno 7182 bound_to 2269
   63.4565  -89.7563   -1.2203 H   0  0  0  0  0  0  0  0  0  0  0  0  # atno 7183 bound_to 2269
   61.8037  -89.8219   -1.3261 H   0  0  0  0  0  0  0  0  0  0  0  0  # atno 7184 bound_to 2269
   60.4518  -79.8039   -5.7644 H   0  0  0  0  0  0  0  0  0  0  0  0  # atno 7193 bound_to 2255
   52.1592  -69.5114   -8.1196 H   0  0  0  0  0  0  0  0  0  0  0  0  # atno 8180 bound_to 4471
   51.1041  -67.3669   -9.2704 H   0  0  0  0  0  0  0  0  0  0  0  0  # atno 8184 bound_to 4473
   63.6360  -73.0723  -11.4928 H   0  0  0  0  0  0  0  0  0  0  0  0  # atno 8203 bound_to 4505
   62.6096  -69.9083  -11.7083 H   0  0  0  0  0  0  0  0  0  0  0  0  # atno 8212 bound_to 4507
   62.1222  -72.0718   -7.5002 H   0  0  0  0  0  0  0  0  0  0  0  0  # atno 8221 bound_to 4509
   61.0020  -72.9729   -3.5201 LP  0  0  0  0  0  0  0  0  0  0  0  0  # atno 9612 bound_to 1703
   59.4517  -73.4667   -3.6598 LP  0  0  0  0  0  0  0  0  0  0  0  0  # atno 9613 bound_to 1703
   62.9320  -66.9562   -4.9720 LP  0  0  0  0  0  0  0  0  0  0  0  0  # atno 9616 bound_to 1881
   61.6690  -67.4331   -4.0532 LP  0  0  0  0  0  0  0  0  0  0  0  0  # atno 9617 bound_to 1881
   61.3418  -81.1187   -5.4075 LP  0  0  0  0  0  0  0  0  0  0  0  0  # atno 9661 bound_to 2255
   62.0702  -79.7523   -5.9263 LP  0  0  0  0  0  0  0  0  0  0  0  0  # atno 9662 bound_to 2255
   68.4638  -80.9228  -11.7032 LP  0  0  0  0  0  0  0  0  0  0  0  0  # atno 9687 bound_to 4361
   69.4012  -81.5000  -12.9092 LP  0  0  0  0  0  0  0  0  0  0  0  0  # atno 9688 bound_to 4361
   53.1151  -69.5917   -6.8051 LP  0  0  0  0  0  0  0  0  0  0  0  0  # atno 9695 bound_to 4471
   53.6259  -70.2079   -8.2284 LP  0  0  0  0  0  0  0  0  0  0  0  0  # atno 9696 bound_to 4471
   50.6914  -67.2925   -7.6981 LP  0  0  0  0  0  0  0  0  0  0  0  0  # atno 9697 bound_to 4473
   51.3653  -68.6505   -8.3050 LP  0  0  0  0  0  0  0  0  0  0  0  0  # atno 9698 bound_to 4473
   65.2534  -72.8974  -11.5325 LP  0  0  0  0  0  0  0  0  0  0  0  0  # atno 9706 bound_to 4505
   64.2897  -71.7601  -12.1993 LP  0  0  0  0  0  0  0  0  0  0  0  0  # atno 9707 bound_to 4505
   64.0540  -69.5953  -11.0274 LP  0  0  0  0  0  0  0  0  0  0  0  0  # atno 9708 bound_to 4507
   62.6848  -69.0275  -10.3421 LP  0  0  0  0  0  0  0  0  0  0  0  0  # atno 9709 bound_to 4507
   63.5532  -71.4259   -7.0724 LP  0  0  0  0  0  0  0  0  0  0  0  0  # atno 9710 bound_to 4509
   63.4536  -72.4077   -8.3734 LP  0  0  0  0  0  0  0  0  0  0  0  0  # atno 9711 bound_to 4509

$$$$
