C12H12ClN5O4S|Chlorsulfuron|mol|1|dock28
  -GOLD-   2292221533D 1   1.00000     0.00000
 
 35 36  0  0  0  0  0  0  0  0  1 V2000
   57.5425  -79.0182  -17.0908 C   0  0  0  0  0  0  0  0  0  0  0  0
   58.5158  -78.2812  -16.2072 C   0  0  0  0  0  0  0  0  0  0  0  0
   59.5010  -78.9378  -15.6206 N   0  0  0  0  0  0  0  0  0  0  0  0
   60.3615  -78.2899  -14.8402 C   0  0  0  0  0  0  0  0  0  0  0  0
   60.2292  -76.9822  -14.6515 N   0  0  0  0  0  0  0  0  0  0  0  0
   59.2385  -76.3264  -15.2424 C   0  0  0  0  0  0  0  0  0  0  0  0
   58.3853  -76.9784  -16.0252 N   0  0  0  0  0  0  0  0  0  0  0  0
   59.1001  -74.9939  -15.0520 O   0  0  0  0  0  0  0  0  0  0  0  0
   60.3039  -74.3825  -15.5201 C   0  0  0  0  0  0  0  0  0  0  0  0
   61.3941  -78.9786  -14.2249 N   0  0  0  0  0  0  0  0  0  0  0  0
   61.9016  -80.0869  -14.7999 C   0  0  0  0  0  0  0  0  0  0  0  0
   61.4533  -80.4822  -15.8584 O   0  0  0  0  0  0  0  0  0  0  0  0
   62.9062  -80.7570  -14.2012 N   0  0  0  0  0  0  0  0  0  0  0  0
   63.4450  -82.1862  -14.8409 S   0  0  0  0  0  0  0  0  0  0  0  0
   63.5530  -81.9664  -16.2406 O   0  0  0  0  0  0  0  0  0  0  0  0
   64.5005  -82.6157  -13.9919 O   0  0  0  0  0  0  0  0  0  0  0  0
   62.1570  -83.3718  -14.6406 C   0  0  0  0  0  0  0  0  0  0  0  0
   61.5613  -83.9394  -15.7508 C   0  0  0  0  0  0  0  0  0  0  0  0
   60.5506  -84.8696  -15.5938 C   0  0  0  0  0  0  0  0  0  0  0  0
   60.1351  -85.2321  -14.3264 C   0  0  0  0  0  0  0  0  0  0  0  0
   60.7299  -84.6648  -13.2150 C   0  0  0  0  0  0  0  0  0  0  0  0
   61.7457  -83.7388  -13.3714 C   0  0  0  0  0  0  0  0  0  0  0  0
   62.4936  -83.0263  -11.9761 Cl  0  0  0  0  0  0  0  0  0  0  0  0
   56.7049  -79.3742  -16.4910 H   0  0  0  0  0  0  0  0  0  0  0  0
   57.1745  -78.3459  -17.8659 H   0  0  0  0  0  0  0  0  0  0  0  0
   58.0441  -79.8675  -17.5547 H   0  0  0  0  0  0  0  0  0  0  0  0
   60.2388  -73.3027  -15.3865 H   0  0  0  0  0  0  0  0  0  0  0  0
   61.1514  -74.7684  -14.9537 H   0  0  0  0  0  0  0  0  0  0  0  0
   60.4397  -74.6103  -16.5774 H   0  0  0  0  0  0  0  0  0  0  0  0
   61.7518  -78.6632  -13.3802 H   0  0  0  0  0  0  0  0  0  0  0  0
   63.3136  -80.4020  -13.3957 H   0  0  0  0  0  0  0  0  0  0  0  0
   61.8851  -83.6559  -16.7414 H   0  0  0  0  0  0  0  0  0  0  0  0
   60.0853  -85.3129  -16.4617 H   0  0  0  0  0  0  0  0  0  0  0  0
   59.3453  -85.9587  -14.2043 H   0  0  0  0  0  0  0  0  0  0  0  0
   60.4047  -84.9476  -12.2247 H   0  0  0  0  0  0  0  0  0  0  0  0
  1  2  1  0  0  0  0
  2  3  2  0  0  0  0
  3  4  1  0  0  0  0
  4  5  2  0  0  0  0
  5  6  1  0  0  0  0
  6  7  2  0  0  0  0
  2  7  1  0  0  0  0
  6  8  1  0  0  0  0
  8  9  1  0  0  0  0
  4 10  1  0  0  0  0
 10 11  1  0  0  0  0
 11 12  2  0  0  0  0
 11 13  1  0  0  0  0
 13 14  1  0  0  0  0
 14 15  2  0  0  0  0
 14 16  2  0  0  0  0
 14 17  1  0  0  0  0
 17 18  2  0  0  0  0
 18 19  1  0  0  0  0
 19 20  2  0  0  0  0
 20 21  1  0  0  0  0
 21 22  2  0  0  0  0
 17 22  1  0  0  0  0
 22 23  1  0  0  0  0
  1 24  1  0  0  0  0
  1 25  1  0  0  0  0
  1 26  1  0  0  0  0
  9 27  1  0  0  0  0
  9 28  1  0  0  0  0
  9 29  1  0  0  0  0
 10 30  1  0  0  0  0
 13 31  1  0  0  0  0
 18 32  1  0  0  0  0
 19 33  1  0  0  0  0
 20 34  1  0  0  0  0
 21 35  1  0  0  0  0
M  END
> <Gold.Version>
2021.2.0

> <Gold.Id.Protein>
5K6Q|5K6Q_protein|mol2

> <Gold.PLP.Fitness>
17.0436

> <Gold.PLP.PLP>
-10.2820

> <Gold.PLP.part.hbond>
-3.7142

> <Gold.PLP.part.metal>
0.0000

> <Gold.PLP.part.buried>
-2.7961

> <Gold.PLP.part.nonpolar>
-4.4906

> <Gold.PLP.part.repulsive>
0.2462

> <Gold.PLP.ligand.clash>
0.0000

> <Gold.PLP.ligand.torsion>
1.7152

> <Gold.PLP.Chemscore.Hbond>
2.3071

> <Gold.PLP.Chemscore.CHOScore>
0.0000

> <Gold.PLP.Chemscore.Metal>
0.0000

> <Gold.Chemscore.Hbonds>
donor molecule, donor type, donor heavy atom, donor atom, acceptor molecule, acceptor atom, score
      L1  H    10    30       P1  2230  0.31
      L1  H    13    31       P1  2231  1.00
      P1  H  4725  8552       L1    16  1.00

> <Gold.PLP.Chemscore.Internal.Correction>
3.2706

> <Gold.Protein.RotatedTorsions>
[ 5877 1703 1702 1700 ] final  121.80 input   60.01 | X-H torsion
[ 6057 1881 1880 1877 ] final   23.67 input   60.00 | X-H torsion
[ 7193 2255 2254 2251 ] final  133.14 input   60.00 | X-H torsion
[ 7182 2269 2268 2267 ] final -112.19 input   59.99 | X-H torsion
[ 6931 4361 4360 4357 ] final  101.99 input   60.01 | X-H torsion
[ 8180 4471 4470 4468 ] final   40.46 input   60.00 | X-H torsion
[ 8184 4473 4472 4470 ] final  -40.87 input   60.00 | X-H torsion
[ 8203 4505 4504 4503 ] final   58.61 input   60.00 | X-H torsion
[ 8212 4507 4506 4504 ] final  169.63 input   60.00 | X-H torsion
[ 8221 4509 4508 4506 ] final    6.06 input   60.00 | X-H torsion

> <Gold.Protein.ActiveResidues>
 TYR305  THR331  LEU332  MET333  LEU349  GLY350  MET351  HIS352  GLY353  ASN358 
 VAL372  ARG373  PHE374  ASP375  ASP376  ARG377  VAL378  THR379  GLY380  LYS381 
 LEU382  PHE385  ASN404  GLY508  GLY509  TRP574  ILE651  PRO652  SER653  GLY654 
 GLY655  FAD702  HOH839  HOH865  HOH881  HOH913  HOH945  HOH958  HOH960  HOH966 
 HOH968 

> <Gold.Protein.RotatedAtoms>
   60.4611  -74.4976   -3.0545 H   0  0  0  0  0  0  0  0  0  0  0  0  # atno 5877 bound_to 1703
   62.9103  -66.9254   -4.8529 H   0  0  0  0  0  0  0  0  0  0  0  0  # atno 6057 bound_to 1881
   70.1695  -81.4375  -12.2978 H   0  0  0  0  0  0  0  0  0  0  0  0  # atno 6931 bound_to 4361
   61.7107  -90.0326   -1.6171 H   0  0  0  0  0  0  0  0  0  0  0  0  # atno 7182 bound_to 2269
   63.0956  -90.5741   -2.3496 H   0  0  0  0  0  0  0  0  0  0  0  0  # atno 7183 bound_to 2269
   63.1920  -89.6020   -1.0105 H   0  0  0  0  0  0  0  0  0  0  0  0  # atno 7184 bound_to 2269
   60.7552  -80.9400   -5.4129 H   0  0  0  0  0  0  0  0  0  0  0  0  # atno 7193 bound_to 2255
   52.9678  -69.5250   -6.8150 H   0  0  0  0  0  0  0  0  0  0  0  0  # atno 8180 bound_to 4471
   51.4196  -68.2696   -9.1279 H   0  0  0  0  0  0  0  0  0  0  0  0  # atno 8184 bound_to 4473
   65.2436  -72.9014  -11.5280 H   0  0  0  0  0  0  0  0  0  0  0  0  # atno 8203 bound_to 4505
   62.1960  -69.3640  -10.9258 H   0  0  0  0  0  0  0  0  0  0  0  0  # atno 8212 bound_to 4507
   63.3741  -72.4347   -8.3889 H   0  0  0  0  0  0  0  0  0  0  0  0  # atno 8221 bound_to 4509
   61.0787  -73.0517   -3.4742 LP  0  0  0  0  0  0  0  0  0  0  0  0  # atno 9612 bound_to 1703
   59.4897  -73.3586   -3.6926 LP  0  0  0  0  0  0  0  0  0  0  0  0  # atno 9613 bound_to 1703
   61.5872  -67.5105   -4.1077 LP  0  0  0  0  0  0  0  0  0  0  0  0  # atno 9616 bound_to 1881
   61.9072  -67.9252   -5.6544 LP  0  0  0  0  0  0  0  0  0  0  0  0  # atno 9617 bound_to 1881
   62.2223  -80.3219   -5.7501 LP  0  0  0  0  0  0  0  0  0  0  0  0  # atno 9661 bound_to 2255
   60.8841  -79.4050   -5.9376 LP  0  0  0  0  0  0  0  0  0  0  0  0  # atno 9662 bound_to 2255
   69.1681  -80.8655  -11.1497 LP  0  0  0  0  0  0  0  0  0  0  0  0  # atno 9687 bound_to 4361
   68.5859  -81.2551  -12.6248 LP  0  0  0  0  0  0  0  0  0  0  0  0  # atno 9688 bound_to 4361
   53.7114  -70.2094   -8.0905 LP  0  0  0  0  0  0  0  0  0  0  0  0  # atno 9695 bound_to 4471
   52.2153  -69.5765   -8.2569 LP  0  0  0  0  0  0  0  0  0  0  0  0  # atno 9696 bound_to 4471
   50.7499  -66.8903   -8.5830 LP  0  0  0  0  0  0  0  0  0  0  0  0  # atno 9697 bound_to 4473
   50.9889  -68.1436   -7.5638 LP  0  0  0  0  0  0  0  0  0  0  0  0  # atno 9698 bound_to 4473
   64.2988  -71.7592  -12.1995 LP  0  0  0  0  0  0  0  0  0  0  0  0  # atno 9706 bound_to 4505
   63.6254  -73.0705  -11.4969 LP  0  0  0  0  0  0  0  0  0  0  0  0  # atno 9707 bound_to 4505
   63.4337  -70.0131  -11.7593 LP  0  0  0  0  0  0  0  0  0  0  0  0  # atno 9708 bound_to 4507
   63.7215  -69.1578  -10.3983 LP  0  0  0  0  0  0  0  0  0  0  0  0  # atno 9709 bound_to 4507
   62.1251  -72.0227   -7.4305 LP  0  0  0  0  0  0  0  0  0  0  0  0  # atno 9710 bound_to 4509
   63.6209  -71.4456   -7.1204 LP  0  0  0  0  0  0  0  0  0  0  0  0  # atno 9711 bound_to 4509

$$$$
