C12H12ClN5O4S|Chlorsulfuron|mol|1|dock22
  -GOLD-   2292221533D 1   1.00000     0.00000
 
 35 36  0  0  0  0  0  0  0  0  1 V2000
   59.3050  -74.2604  -15.3023 C   0  0  0  0  0  0  0  0  0  0  0  0
   60.5832  -74.9263  -15.7427 C   0  0  0  0  0  0  0  0  0  0  0  0
   61.1029  -75.9004  -15.0169 N   0  0  0  0  0  0  0  0  0  0  0  0
   62.2310  -76.4899  -15.4033 C   0  0  0  0  0  0  0  0  0  0  0  0
   62.8341  -76.0981  -16.5195 N   0  0  0  0  0  0  0  0  0  0  0  0
   62.3090  -75.1195  -17.2457 C   0  0  0  0  0  0  0  0  0  0  0  0
   61.1789  -74.5382  -16.8572 N   0  0  0  0  0  0  0  0  0  0  0  0
   62.9211  -74.7172  -18.3834 O   0  0  0  0  0  0  0  0  0  0  0  0
   64.2379  -74.2993  -18.0184 C   0  0  0  0  0  0  0  0  0  0  0  0
   62.7760  -77.5108  -14.6419 N   0  0  0  0  0  0  0  0  0  0  0  0
   63.5174  -78.4694  -15.2318 C   0  0  0  0  0  0  0  0  0  0  0  0
   63.7077  -78.4381  -16.4321 O   0  0  0  0  0  0  0  0  0  0  0  0
   64.0476  -79.4628  -14.4912 N   0  0  0  0  0  0  0  0  0  0  0  0
   64.8515  -80.7079  -15.2299 S   0  0  0  0  0  0  0  0  0  0  0  0
   66.0379  -80.1379  -15.7653 O   0  0  0  0  0  0  0  0  0  0  0  0
   64.8009  -81.7957  -14.3169 O   0  0  0  0  0  0  0  0  0  0  0  0
   63.8895  -81.2048  -16.6200 C   0  0  0  0  0  0  0  0  0  0  0  0
   64.4604  -81.2414  -17.8779 C   0  0  0  0  0  0  0  0  0  0  0  0
   63.7057  -81.6311  -18.9688 C   0  0  0  0  0  0  0  0  0  0  0  0
   62.3798  -81.9840  -18.8020 C   0  0  0  0  0  0  0  0  0  0  0  0
   61.8074  -81.9474  -17.5443 C   0  0  0  0  0  0  0  0  0  0  0  0
   62.5639  -81.5637  -16.4514 C   0  0  0  0  0  0  0  0  0  0  0  0
   61.8459  -81.5181  -14.8715 Cl  0  0  0  0  0  0  0  0  0  0  0  0
   59.5400  -73.4111  -14.6608 H   0  0  0  0  0  0  0  0  0  0  0  0
   58.7557  -73.9135  -16.1776 H   0  0  0  0  0  0  0  0  0  0  0  0
   58.6947  -74.9749  -14.7500 H   0  0  0  0  0  0  0  0  0  0  0  0
   64.7724  -73.9647  -18.9076 H   0  0  0  0  0  0  0  0  0  0  0  0
   64.1737  -73.4795  -17.3030 H   0  0  0  0  0  0  0  0  0  0  0  0
   64.7721  -75.1350  -17.5664 H   0  0  0  0  0  0  0  0  0  0  0  0
   62.6241  -77.5359  -13.6841 H   0  0  0  0  0  0  0  0  0  0  0  0
   63.9585  -79.4482  -13.5254 H   0  0  0  0  0  0  0  0  0  0  0  0
   65.4963  -80.9651  -18.0090 H   0  0  0  0  0  0  0  0  0  0  0  0
   64.1523  -81.6595  -19.9518 H   0  0  0  0  0  0  0  0  0  0  0  0
   61.7907  -82.2881  -19.6547 H   0  0  0  0  0  0  0  0  0  0  0  0
   60.7712  -82.2223  -17.4142 H   0  0  0  0  0  0  0  0  0  0  0  0
  1  2  1  0  0  0  0
  2  3  2  0  0  0  0
  3  4  1  0  0  0  0
  4  5  2  0  0  0  0
  5  6  1  0  0  0  0
  6  7  2  0  0  0  0
  2  7  1  0  0  0  0
  6  8  1  0  0  0  0
  8  9  1  0  0  0  0
  4 10  1  0  0  0  0
 10 11  1  0  0  0  0
 11 12  2  0  0  0  0
 11 13  1  0  0  0  0
 13 14  1  0  0  0  0
 14 15  2  0  0  0  0
 14 16  2  0  0  0  0
 14 17  1  0  0  0  0
 17 18  2  0  0  0  0
 18 19  1  0  0  0  0
 19 20  2  0  0  0  0
 20 21  1  0  0  0  0
 21 22  2  0  0  0  0
 17 22  1  0  0  0  0
 22 23  1  0  0  0  0
  1 24  1  0  0  0  0
  1 25  1  0  0  0  0
  1 26  1  0  0  0  0
  9 27  1  0  0  0  0
  9 28  1  0  0  0  0
  9 29  1  0  0  0  0
 10 30  1  0  0  0  0
 13 31  1  0  0  0  0
 18 32  1  0  0  0  0
 19 33  1  0  0  0  0
 20 34  1  0  0  0  0
 21 35  1  0  0  0  0
M  END
> <Gold.Version>
2021.2.0

> <Gold.Id.Protein>
5K6Q|5K6Q_protein|mol2

> <Gold.PLP.Fitness>
20.8029

> <Gold.PLP.PLP>
-15.4483

> <Gold.PLP.part.hbond>
-5.4181

> <Gold.PLP.part.metal>
0.0000

> <Gold.PLP.part.buried>
-4.0949

> <Gold.PLP.part.nonpolar>
-8.1995

> <Gold.PLP.part.repulsive>
0.6496

> <Gold.PLP.ligand.clash>
0.0291

> <Gold.PLP.ligand.torsion>
1.8102

> <Gold.PLP.Chemscore.Hbond>
1.9111

> <Gold.PLP.Chemscore.CHOScore>
0.0000

> <Gold.PLP.Chemscore.Metal>
0.0000

> <Gold.Chemscore.Hbonds>
donor molecule, donor type, donor heavy atom, donor atom, acceptor molecule, acceptor atom, score
      L1  H    10    30       P1  2230  0.52
      L1  H    13    31       P1  2231  1.00
      P1  H  2242  7198       L1    15  0.28
      P1  H  4723  8580       L1    16  0.11

> <Gold.PLP.Chemscore.Internal.Correction>
3.2706

> <Gold.Protein.RotatedTorsions>
[ 5877 1703 1702 1700 ] final    4.20 input   60.01 | X-H torsion
[ 6057 1881 1880 1877 ] final  -95.54 input   60.00 | X-H torsion
[ 7193 2255 2254 2251 ] final -164.37 input   60.00 | X-H torsion
[ 7182 2269 2268 2267 ] final   -9.46 input   59.99 | X-H torsion
[ 6931 4361 4360 4357 ] final -139.71 input   60.01 | X-H torsion
[ 8180 4471 4470 4468 ] final   95.04 input   60.00 | X-H torsion
[ 8184 4473 4472 4470 ] final -152.07 input   60.00 | X-H torsion
[ 8203 4505 4504 4503 ] final  -53.55 input   60.00 | X-H torsion
[ 8212 4507 4506 4504 ] final   10.19 input   60.00 | X-H torsion
[ 8221 4509 4508 4506 ] final  -93.66 input   60.00 | X-H torsion

> <Gold.Protein.ActiveResidues>
 TYR305  THR331  LEU332  MET333  LEU349  GLY350  MET351  HIS352  GLY353  ASN358 
 VAL372  ARG373  PHE374  ASP375  ASP376  ARG377  VAL378  THR379  GLY380  LYS381 
 LEU382  PHE385  ASN404  GLY508  GLY509  TRP574  ILE651  PRO652  SER653  GLY654 
 GLY655  FAD702  HOH839  HOH865  HOH881  HOH913  HOH945  HOH958  HOH960  HOH966 
 HOH968 

> <Gold.Protein.RotatedAtoms>
   61.0958  -73.0831   -3.4561 H   0  0  0  0  0  0  0  0  0  0  0  0  # atno 5877 bound_to 1703
   61.6003  -67.5040   -4.1059 H   0  0  0  0  0  0  0  0  0  0  0  0  # atno 6057 bound_to 1881
   68.6079  -81.2666  -12.6392 H   0  0  0  0  0  0  0  0  0  0  0  0  # atno 6931 bound_to 4361
   62.8221  -90.6251   -2.4226 H   0  0  0  0  0  0  0  0  0  0  0  0  # atno 7182 bound_to 2269
   63.4055  -89.7161   -1.1654 H   0  0  0  0  0  0  0  0  0  0  0  0  # atno 7183 bound_to 2269
   61.7702  -89.8677   -1.3895 H   0  0  0  0  0  0  0  0  0  0  0  0  # atno 7184 bound_to 2269
   60.3604  -80.0882   -5.6618 H   0  0  0  0  0  0  0  0  0  0  0  0  # atno 7193 bound_to 2255
   52.2678  -69.3317   -7.2729 H   0  0  0  0  0  0  0  0  0  0  0  0  # atno 8180 bound_to 4471
   50.7956  -66.9173   -8.7172 H   0  0  0  0  0  0  0  0  0  0  0  0  # atno 8184 bound_to 4473
   64.4272  -71.7584  -12.1925 H   0  0  0  0  0  0  0  0  0  0  0  0  # atno 8203 bound_to 4505
   63.9171  -69.8240  -11.3952 H   0  0  0  0  0  0  0  0  0  0  0  0  # atno 8212 bound_to 4507
   62.1390  -72.2148   -7.6996 H   0  0  0  0  0  0  0  0  0  0  0  0  # atno 8221 bound_to 4509
   59.5054  -73.3237   -3.7025 LP  0  0  0  0  0  0  0  0  0  0  0  0  # atno 9612 bound_to 1703
   60.4238  -74.5111   -3.0598 LP  0  0  0  0  0  0  0  0  0  0  0  0  # atno 9613 bound_to 1703
   61.8967  -67.9299   -5.6483 LP  0  0  0  0  0  0  0  0  0  0  0  0  # atno 9616 bound_to 1881
   62.9169  -66.9232   -4.8658 LP  0  0  0  0  0  0  0  0  0  0  0  0  # atno 9617 bound_to 1881
   61.6504  -81.0583   -5.4547 LP  0  0  0  0  0  0  0  0  0  0  0  0  # atno 9661 bound_to 2255
   61.8536  -79.5264   -5.9824 LP  0  0  0  0  0  0  0  0  0  0  0  0  # atno 9662 bound_to 2255
   70.1855  -81.4302  -12.2751 LP  0  0  0  0  0  0  0  0  0  0  0  0  # atno 9687 bound_to 4361
   69.1409  -80.8625  -11.1557 LP  0  0  0  0  0  0  0  0  0  0  0  0  # atno 9688 bound_to 4361
   53.7510  -70.0007   -7.2524 LP  0  0  0  0  0  0  0  0  0  0  0  0  # atno 9695 bound_to 4471
   52.8806  -69.9799   -8.6339 LP  0  0  0  0  0  0  0  0  0  0  0  0  # atno 9696 bound_to 4471
   50.9305  -68.0170   -7.5253 LP  0  0  0  0  0  0  0  0  0  0  0  0  # atno 9697 bound_to 4473
   51.4369  -68.3787   -9.0351 LP  0  0  0  0  0  0  0  0  0  0  0  0  # atno 9698 bound_to 4473
   63.5577  -72.9757  -11.5519 LP  0  0  0  0  0  0  0  0  0  0  0  0  # atno 9706 bound_to 4505
   65.1887  -73.0049  -11.4753 LP  0  0  0  0  0  0  0  0  0  0  0  0  # atno 9707 bound_to 4505
   63.1272  -68.9989  -10.2362 LP  0  0  0  0  0  0  0  0  0  0  0  0  # atno 9708 bound_to 4507
   62.2948  -69.7087  -11.4486 LP  0  0  0  0  0  0  0  0  0  0  0  0  # atno 9709 bound_to 4507
   63.3344  -71.3946   -6.9606 LP  0  0  0  0  0  0  0  0  0  0  0  0  # atno 9710 bound_to 4509
   63.6555  -72.2951   -8.2844 LP  0  0  0  0  0  0  0  0  0  0  0  0  # atno 9711 bound_to 4509

$$$$
