C12H12ClN5O4S|Chlorsulfuron|mol|1|dock5
  -GOLD-   2292221533D 1   1.00000     0.00000
 
 35 36  0  0  0  0  0  0  0  0  1 V2000
   66.8771  -73.4294  -14.0384 C   0  0  0  0  0  0  0  0  0  0  0  0
   66.1242  -74.5950  -14.6264 C   0  0  0  0  0  0  0  0  0  0  0  0
   65.0183  -75.0258  -14.0456 N   0  0  0  0  0  0  0  0  0  0  0  0
   64.3517  -76.0543  -14.5624 C   0  0  0  0  0  0  0  0  0  0  0  0
   64.7992  -76.6476  -15.6628 N   0  0  0  0  0  0  0  0  0  0  0  0
   65.9102  -76.2120  -16.2431 C   0  0  0  0  0  0  0  0  0  0  0  0
   66.5686  -75.1806  -15.7250 N   0  0  0  0  0  0  0  0  0  0  0  0
   66.3695  -76.8144  -17.3643 O   0  0  0  0  0  0  0  0  0  0  0  0
   66.4942  -75.7960  -18.3589 C   0  0  0  0  0  0  0  0  0  0  0  0
   63.1925  -76.5061  -13.9531 N   0  0  0  0  0  0  0  0  0  0  0  0
   61.9937  -76.0406  -14.3564 C   0  0  0  0  0  0  0  0  0  0  0  0
   61.9297  -75.2241  -15.2548 O   0  0  0  0  0  0  0  0  0  0  0  0
   60.8659  -76.4801  -13.7636 N   0  0  0  0  0  0  0  0  0  0  0  0
   59.4040  -75.8171  -14.1708 S   0  0  0  0  0  0  0  0  0  0  0  0
   58.4398  -76.4877  -13.3711 O   0  0  0  0  0  0  0  0  0  0  0  0
   59.6127  -74.4118  -14.2023 O   0  0  0  0  0  0  0  0  0  0  0  0
   59.0573  -76.2868  -15.8333 C   0  0  0  0  0  0  0  0  0  0  0  0
   59.7186  -77.3594  -16.4006 C   0  0  0  0  0  0  0  0  0  0  0  0
   59.4468  -77.7281  -17.7051 C   0  0  0  0  0  0  0  0  0  0  0  0
   58.5138  -77.0238  -18.4427 C   0  0  0  0  0  0  0  0  0  0  0  0
   57.8519  -75.9504  -17.8765 C   0  0  0  0  0  0  0  0  0  0  0  0
   58.1188  -75.5852  -16.5692 C   0  0  0  0  0  0  0  0  0  0  0  0
   57.2876  -74.2376  -15.8572 Cl  0  0  0  0  0  0  0  0  0  0  0  0
   67.6125  -73.7959  -13.3222 H   0  0  0  0  0  0  0  0  0  0  0  0
   67.3852  -72.8860  -14.8351 H   0  0  0  0  0  0  0  0  0  0  0  0
   66.1782  -72.7632  -13.5326 H   0  0  0  0  0  0  0  0  0  0  0  0
   66.8633  -76.2362  -19.2853 H   0  0  0  0  0  0  0  0  0  0  0  0
   65.5202  -75.3400  -18.5361 H   0  0  0  0  0  0  0  0  0  0  0  0
   67.1943  -75.0351  -18.0140 H   0  0  0  0  0  0  0  0  0  0  0  0
   63.2436  -77.1576  -13.2362 H   0  0  0  0  0  0  0  0  0  0  0  0
   60.9105  -77.1848  -13.0986 H   0  0  0  0  0  0  0  0  0  0  0  0
   60.4483  -77.9096  -15.8249 H   0  0  0  0  0  0  0  0  0  0  0  0
   59.9638  -78.5664  -18.1481 H   0  0  0  0  0  0  0  0  0  0  0  0
   58.3021  -77.3121  -19.4618 H   0  0  0  0  0  0  0  0  0  0  0  0
   57.1236  -75.3998  -18.4531 H   0  0  0  0  0  0  0  0  0  0  0  0
  1  2  1  0  0  0  0
  2  3  2  0  0  0  0
  3  4  1  0  0  0  0
  4  5  2  0  0  0  0
  5  6  1  0  0  0  0
  6  7  2  0  0  0  0
  2  7  1  0  0  0  0
  6  8  1  0  0  0  0
  8  9  1  0  0  0  0
  4 10  1  0  0  0  0
 10 11  1  0  0  0  0
 11 12  2  0  0  0  0
 11 13  1  0  0  0  0
 13 14  1  0  0  0  0
 14 15  2  0  0  0  0
 14 16  2  0  0  0  0
 14 17  1  0  0  0  0
 17 18  2  0  0  0  0
 18 19  1  0  0  0  0
 19 20  2  0  0  0  0
 20 21  1  0  0  0  0
 21 22  2  0  0  0  0
 17 22  1  0  0  0  0
 22 23  1  0  0  0  0
  1 24  1  0  0  0  0
  1 25  1  0  0  0  0
  1 26  1  0  0  0  0
  9 27  1  0  0  0  0
  9 28  1  0  0  0  0
  9 29  1  0  0  0  0
 10 30  1  0  0  0  0
 13 31  1  0  0  0  0
 18 32  1  0  0  0  0
 19 33  1  0  0  0  0
 20 34  1  0  0  0  0
 21 35  1  0  0  0  0
M  END
> <Gold.Version>
2021.2.0

> <Gold.Id.Protein>
5K6Q|5K6Q_protein|mol2

> <Gold.PLP.Fitness>
27.5449

> <Gold.PLP.PLP>
-20.6455

> <Gold.PLP.part.hbond>
-4.7641

> <Gold.PLP.part.metal>
0.0000

> <Gold.PLP.part.buried>
-5.5884

> <Gold.PLP.part.nonpolar>
-11.7296

> <Gold.PLP.part.repulsive>
0.5284

> <Gold.PLP.ligand.clash>
0.0000

> <Gold.PLP.ligand.torsion>
2.5208

> <Gold.PLP.Chemscore.Hbond>
2.8832

> <Gold.PLP.Chemscore.CHOScore>
0.0000

> <Gold.PLP.Chemscore.Metal>
0.0000

> <Gold.Chemscore.Hbonds>
donor molecule, donor type, donor heavy atom, donor atom, acceptor molecule, acceptor atom, score
      L1  H    10    30       P1  2230  0.98
      L1  H    13    31       P1  2230  0.19
      P1  H  2203  7120       L1    16  1.00
      P1  H  4717  8548       L1     8  0.72

> <Gold.PLP.Chemscore.Internal.Correction>
3.2914

> <Gold.Protein.RotatedTorsions>
[ 5877 1703 1702 1700 ] final   30.74 input   60.01 | X-H torsion
[ 6057 1881 1880 1877 ] final  -86.43 input   60.00 | X-H torsion
[ 7193 2255 2254 2251 ] final  126.13 input   60.00 | X-H torsion
[ 7182 2269 2268 2267 ] final   -8.14 input   59.99 | X-H torsion
[ 6931 4361 4360 4357 ] final  111.24 input   60.01 | X-H torsion
[ 8180 4471 4470 4468 ] final   50.54 input   60.00 | X-H torsion
[ 8184 4473 4472 4470 ] final -143.04 input   60.00 | X-H torsion
[ 8203 4505 4504 4503 ] final -178.52 input   60.00 | X-H torsion
[ 8212 4507 4506 4504 ] final  -55.92 input   60.00 | X-H torsion
[ 8221 4509 4508 4506 ] final   59.83 input   60.00 | X-H torsion

> <Gold.Protein.ActiveResidues>
 TYR305  THR331  LEU332  MET333  LEU349  GLY350  MET351  HIS352  GLY353  ASN358 
 VAL372  ARG373  PHE374  ASP375  ASP376  ARG377  VAL378  THR379  GLY380  LYS381 
 LEU382  PHE385  ASN404  GLY508  GLY509  TRP574  ILE651  PRO652  SER653  GLY654 
 GLY655  FAD702  HOH839  HOH865  HOH881  HOH913  HOH945  HOH958  HOH960  HOH966 
 HOH968 

> <Gold.Protein.RotatedAtoms>
   61.2518  -73.4456   -3.2861 H   0  0  0  0  0  0  0  0  0  0  0  0  # atno 5877 bound_to 1703
   61.6997  -67.4120   -4.0446 H   0  0  0  0  0  0  0  0  0  0  0  0  # atno 6057 bound_to 1881
   70.1047  -81.4702  -12.4302 H   0  0  0  0  0  0  0  0  0  0  0  0  # atno 6931 bound_to 4361
   62.8439  -90.6229   -2.4194 H   0  0  0  0  0  0  0  0  0  0  0  0  # atno 7182 bound_to 2269
   63.3913  -89.7061   -1.1517 H   0  0  0  0  0  0  0  0  0  0  0  0  # atno 7183 bound_to 2269
   61.7627  -89.8799   -1.4063 H   0  0  0  0  0  0  0  0  0  0  0  0  # atno 7184 bound_to 2269
   60.8528  -80.9987   -5.4020 H   0  0  0  0  0  0  0  0  0  0  0  0  # atno 7193 bound_to 2255
   52.8177  -69.4653   -6.8457 H   0  0  0  0  0  0  0  0  0  0  0  0  # atno 8180 bound_to 4471
   50.8443  -66.9604   -8.8493 H   0  0  0  0  0  0  0  0  0  0  0  0  # atno 8184 bound_to 4473
   63.6043  -73.0324  -11.5161 H   0  0  0  0  0  0  0  0  0  0  0  0  # atno 8203 bound_to 4505
   63.8761  -69.2667  -10.5404 H   0  0  0  0  0  0  0  0  0  0  0  0  # atno 8212 bound_to 4507
   63.9295  -71.9766   -7.9429 H   0  0  0  0  0  0  0  0  0  0  0  0  # atno 8221 bound_to 4509
   59.7685  -72.9877   -3.7743 LP  0  0  0  0  0  0  0  0  0  0  0  0  # atno 9612 bound_to 1703
   60.0037  -74.4820   -3.1592 LP  0  0  0  0  0  0  0  0  0  0  0  0  # atno 9613 bound_to 1703
   61.7789  -67.9768   -5.5687 LP  0  0  0  0  0  0  0  0  0  0  0  0  # atno 9616 bound_to 1881
   62.9346  -66.9689   -5.0073 LP  0  0  0  0  0  0  0  0  0  0  0  0  # atno 9617 bound_to 1881
   62.2247  -80.2126   -5.7866 LP  0  0  0  0  0  0  0  0  0  0  0  0  # atno 9661 bound_to 2255
   60.7835  -79.4550   -5.9121 LP  0  0  0  0  0  0  0  0  0  0  0  0  # atno 9662 bound_to 2255
   69.3175  -80.8866  -11.1310 LP  0  0  0  0  0  0  0  0  0  0  0  0  # atno 9687 bound_to 4361
   68.5017  -81.2012  -12.5102 LP  0  0  0  0  0  0  0  0  0  0  0  0  # atno 9688 bound_to 4361
   53.7758  -70.1974   -7.9384 LP  0  0  0  0  0  0  0  0  0  0  0  0  # atno 9695 bound_to 4471
   52.3020  -69.6486   -8.3781 LP  0  0  0  0  0  0  0  0  0  0  0  0  # atno 9696 bound_to 4471
   50.8735  -67.8811   -7.5079 LP  0  0  0  0  0  0  0  0  0  0  0  0  # atno 9697 bound_to 4473
   51.4447  -68.4712   -8.9194 LP  0  0  0  0  0  0  0  0  0  0  0  0  # atno 9698 bound_to 4473
   65.2291  -72.9423  -11.5085 LP  0  0  0  0  0  0  0  0  0  0  0  0  # atno 9706 bound_to 4505
   64.3459  -71.7554  -12.1998 LP  0  0  0  0  0  0  0  0  0  0  0  0  # atno 9707 bound_to 4505
   62.2604  -69.2424  -10.7334 LP  0  0  0  0  0  0  0  0  0  0  0  0  # atno 9708 bound_to 4507
   63.2029  -70.0265  -11.8122 LP  0  0  0  0  0  0  0  0  0  0  0  0  # atno 9709 bound_to 4507
   62.3861  -72.4639   -8.1119 LP  0  0  0  0  0  0  0  0  0  0  0  0  # atno 9710 bound_to 4509
   62.8007  -71.4656   -6.8880 LP  0  0  0  0  0  0  0  0  0  0  0  0  # atno 9711 bound_to 4509

$$$$
