C12H12ClN5O4S|Chlorsulfuron|mol|1|dock27
  -GOLD-   2292221533D 1   1.00000     0.00000
 
 35 36  0  0  0  0  0  0  0  0  1 V2000
   67.3675  -73.9903  -13.7604 C   0  0  0  0  0  0  0  0  0  0  0  0
   66.4397  -74.9336  -14.4819 C   0  0  0  0  0  0  0  0  0  0  0  0
   65.2994  -75.2947  -13.9204 N   0  0  0  0  0  0  0  0  0  0  0  0
   64.4786  -76.1270  -14.5550 C   0  0  0  0  0  0  0  0  0  0  0  0
   64.8067  -76.5948  -15.7536 N   0  0  0  0  0  0  0  0  0  0  0  0
   65.9527  -76.2298  -16.3143 C   0  0  0  0  0  0  0  0  0  0  0  0
   66.7659  -75.3937  -15.6776 N   0  0  0  0  0  0  0  0  0  0  0  0
   66.2906  -76.7048  -17.5354 O   0  0  0  0  0  0  0  0  0  0  0  0
   65.2724  -76.2759  -18.4417 C   0  0  0  0  0  0  0  0  0  0  0  0
   63.2834  -76.5058  -13.9658 N   0  0  0  0  0  0  0  0  0  0  0  0
   62.1151  -76.0460  -14.4558 C   0  0  0  0  0  0  0  0  0  0  0  0
   62.1101  -75.2987  -15.4147 O   0  0  0  0  0  0  0  0  0  0  0  0
   60.9522  -76.4144  -13.8827 N   0  0  0  0  0  0  0  0  0  0  0  0
   59.5263  -75.7523  -14.4030 S   0  0  0  0  0  0  0  0  0  0  0  0
   58.4997  -76.5721  -13.8617 O   0  0  0  0  0  0  0  0  0  0  0  0
   59.6538  -74.3517  -14.1990 O   0  0  0  0  0  0  0  0  0  0  0  0
   59.4475  -75.9765  -16.1488 C   0  0  0  0  0  0  0  0  0  0  0  0
   59.6529  -74.9023  -16.9936 C   0  0  0  0  0  0  0  0  0  0  0  0
   59.5910  -75.0780  -18.3635 C   0  0  0  0  0  0  0  0  0  0  0  0
   59.3231  -76.3280  -18.8891 C   0  0  0  0  0  0  0  0  0  0  0  0
   59.1170  -77.4033  -18.0451 C   0  0  0  0  0  0  0  0  0  0  0  0
   59.1852  -77.2294  -16.6744 C   0  0  0  0  0  0  0  0  0  0  0  0
   58.9270  -78.5793  -15.6140 Cl  0  0  0  0  0  0  0  0  0  0  0  0
   68.0617  -74.5630  -13.1455 H   0  0  0  0  0  0  0  0  0  0  0  0
   67.9267  -73.4029  -14.4887 H   0  0  0  0  0  0  0  0  0  0  0  0
   66.7851  -73.3228  -13.1253 H   0  0  0  0  0  0  0  0  0  0  0  0
   65.5027  -76.6367  -19.4441 H   0  0  0  0  0  0  0  0  0  0  0  0
   64.3102  -76.6768  -18.1232 H   0  0  0  0  0  0  0  0  0  0  0  0
   65.2277  -75.1868  -18.4489 H   0  0  0  0  0  0  0  0  0  0  0  0
   63.2873  -77.1020  -13.2006 H   0  0  0  0  0  0  0  0  0  0  0  0
   60.9506  -77.0675  -13.1655 H   0  0  0  0  0  0  0  0  0  0  0  0
   59.8616  -73.9252  -16.5835 H   0  0  0  0  0  0  0  0  0  0  0  0
   59.7517  -74.2382  -19.0233 H   0  0  0  0  0  0  0  0  0  0  0  0
   59.2746  -76.4646  -19.9593 H   0  0  0  0  0  0  0  0  0  0  0  0
   58.9069  -78.3797  -18.4559 H   0  0  0  0  0  0  0  0  0  0  0  0
  1  2  1  0  0  0  0
  2  3  2  0  0  0  0
  3  4  1  0  0  0  0
  4  5  2  0  0  0  0
  5  6  1  0  0  0  0
  6  7  2  0  0  0  0
  2  7  1  0  0  0  0
  6  8  1  0  0  0  0
  8  9  1  0  0  0  0
  4 10  1  0  0  0  0
 10 11  1  0  0  0  0
 11 12  2  0  0  0  0
 11 13  1  0  0  0  0
 13 14  1  0  0  0  0
 14 15  2  0  0  0  0
 14 16  2  0  0  0  0
 14 17  1  0  0  0  0
 17 18  2  0  0  0  0
 18 19  1  0  0  0  0
 19 20  2  0  0  0  0
 20 21  1  0  0  0  0
 21 22  2  0  0  0  0
 17 22  1  0  0  0  0
 22 23  1  0  0  0  0
  1 24  1  0  0  0  0
  1 25  1  0  0  0  0
  1 26  1  0  0  0  0
  9 27  1  0  0  0  0
  9 28  1  0  0  0  0
  9 29  1  0  0  0  0
 10 30  1  0  0  0  0
 13 31  1  0  0  0  0
 18 32  1  0  0  0  0
 19 33  1  0  0  0  0
 20 34  1  0  0  0  0
 21 35  1  0  0  0  0
M  END
> <Gold.Version>
2021.2.0

> <Gold.Id.Protein>
5K6Q|5K6Q_protein|mol2

> <Gold.PLP.Fitness>
28.6509

> <Gold.PLP.PLP>
-21.1090

> <Gold.PLP.part.hbond>
-4.4283

> <Gold.PLP.part.metal>
0.0000

> <Gold.PLP.part.buried>
-5.2291

> <Gold.PLP.part.nonpolar>
-12.8866

> <Gold.PLP.part.repulsive>
0.4524

> <Gold.PLP.ligand.clash>
0.0000

> <Gold.PLP.ligand.torsion>
2.2063

> <Gold.PLP.Chemscore.Hbond>
2.8946

> <Gold.PLP.Chemscore.CHOScore>
0.0000

> <Gold.PLP.Chemscore.Metal>
0.0000

> <Gold.Chemscore.Hbonds>
donor molecule, donor type, donor heavy atom, donor atom, acceptor molecule, acceptor atom, score
      L1  H    10    30       P1  2230  0.99
      L1  H    13    31       P1  2230  0.09
      P1  H  2203  7120       L1    16  1.00
      P1  H  4717  8548       L1     8  0.82

> <Gold.PLP.Chemscore.Internal.Correction>
3.2706

> <Gold.Protein.RotatedTorsions>
[ 5877 1703 1702 1700 ] final -163.17 input   60.01 | X-H torsion
[ 6057 1881 1880 1877 ] final  169.61 input   60.00 | X-H torsion
[ 7193 2255 2254 2251 ] final -112.12 input   60.00 | X-H torsion
[ 7182 2269 2268 2267 ] final   63.66 input   59.99 | X-H torsion
[ 6931 4361 4360 4357 ] final  -49.51 input   60.01 | X-H torsion
[ 8180 4471 4470 4468 ] final  -34.22 input   60.00 | X-H torsion
[ 8184 4473 4472 4470 ] final -133.93 input   60.00 | X-H torsion
[ 8203 4505 4504 4503 ] final    2.08 input   60.00 | X-H torsion
[ 8212 4507 4506 4504 ] final   62.83 input   60.00 | X-H torsion
[ 8221 4509 4508 4506 ] final -120.06 input   60.00 | X-H torsion

> <Gold.Protein.ActiveResidues>
 TYR305  THR331  LEU332  MET333  LEU349  GLY350  MET351  HIS352  GLY353  ASN358 
 VAL372  ARG373  PHE374  ASP375  ASP376  ARG377  VAL378  THR379  GLY380  LYS381 
 LEU382  PHE385  ASN404  GLY508  GLY509  TRP574  ILE651  PRO652  SER653  GLY654 
 GLY655  FAD702  HOH839  HOH865  HOH881  HOH913  HOH945  HOH958  HOH960  HOH966 
 HOH968 

> <Gold.Protein.RotatedAtoms>
   59.4936  -74.0296   -3.4354 H   0  0  0  0  0  0  0  0  0  0  0  0  # atno 5877 bound_to 1703
   61.6002  -68.0246   -5.3829 H   0  0  0  0  0  0  0  0  0  0  0  0  # atno 6057 bound_to 1881
   68.7131  -80.8624  -11.3803 H   0  0  0  0  0  0  0  0  0  0  0  0  # atno 6931 bound_to 4361
   63.6148  -90.1472   -1.7572 H   0  0  0  0  0  0  0  0  0  0  0  0  # atno 7182 bound_to 2269
   62.2997  -89.5486   -0.9451 H   0  0  0  0  0  0  0  0  0  0  0  0  # atno 7183 bound_to 2269
   62.0835  -90.5133   -2.2755 H   0  0  0  0  0  0  0  0  0  0  0  0  # atno 7184 bound_to 2269
   60.8114  -79.4463   -5.9150 H   0  0  0  0  0  0  0  0  0  0  0  0  # atno 7193 bound_to 2255
   53.7933  -70.0540   -7.3881 H   0  0  0  0  0  0  0  0  0  0  0  0  # atno 8180 bound_to 4471
   50.8988  -67.0242   -8.9722 H   0  0  0  0  0  0  0  0  0  0  0  0  # atno 8184 bound_to 4473
   65.1833  -72.1287  -11.9589 H   0  0  0  0  0  0  0  0  0  0  0  0  # atno 8203 bound_to 4505
   63.2223  -70.0250  -11.8028 H   0  0  0  0  0  0  0  0  0  0  0  0  # atno 8212 bound_to 4507
   62.1512  -71.9595   -7.3570 H   0  0  0  0  0  0  0  0  0  0  0  0  # atno 8221 bound_to 4509
   61.0760  -74.1259   -3.0682 LP  0  0  0  0  0  0  0  0  0  0  0  0  # atno 9612 bound_to 1703
   60.4668  -72.7557   -3.7150 LP  0  0  0  0  0  0  0  0  0  0  0  0  # atno 9613 bound_to 1703
   62.9168  -67.0781   -5.2459 LP  0  0  0  0  0  0  0  0  0  0  0  0  # atno 9616 bound_to 1881
   61.8968  -67.2507   -3.9824 LP  0  0  0  0  0  0  0  0  0  0  0  0  # atno 9617 bound_to 1881
   60.8245  -80.9913   -5.4044 LP  0  0  0  0  0  0  0  0  0  0  0  0  # atno 9661 bound_to 2255
   62.2254  -80.2398   -5.7777 LP  0  0  0  0  0  0  0  0  0  0  0  0  # atno 9662 bound_to 2255
   68.9966  -81.4173  -12.8836 LP  0  0  0  0  0  0  0  0  0  0  0  0  # atno 9687 bound_to 4361
   70.2240  -81.2825  -11.8150 LP  0  0  0  0  0  0  0  0  0  0  0  0  # atno 9688 bound_to 4361
   52.7433  -69.9149   -8.6235 LP  0  0  0  0  0  0  0  0  0  0  0  0  # atno 9695 bound_to 4471
   52.3520  -69.3383   -7.1467 LP  0  0  0  0  0  0  0  0  0  0  0  0  # atno 9696 bound_to 4471
   50.8206  -67.7410   -7.5134 LP  0  0  0  0  0  0  0  0  0  0  0  0  # atno 9697 bound_to 4473
   51.4428  -68.5470   -8.7901 LP  0  0  0  0  0  0  0  0  0  0  0  0  # atno 9698 bound_to 4473
   63.5580  -72.2063  -11.9788 LP  0  0  0  0  0  0  0  0  0  0  0  0  # atno 9706 bound_to 4505
   64.4269  -73.4014  -11.2835 LP  0  0  0  0  0  0  0  0  0  0  0  0  # atno 9707 bound_to 4505
   63.8696  -69.2531  -10.5248 LP  0  0  0  0  0  0  0  0  0  0  0  0  # atno 9708 bound_to 4507
   62.2521  -69.2521  -10.7495 LP  0  0  0  0  0  0  0  0  0  0  0  0  # atno 9709 bound_to 4507
   63.6946  -71.4742   -7.1826 LP  0  0  0  0  0  0  0  0  0  0  0  0  # atno 9710 bound_to 4509
   63.2831  -72.4726   -8.4075 LP  0  0  0  0  0  0  0  0  0  0  0  0  # atno 9711 bound_to 4509

$$$$
