C12H12ClN5O4S|Chlorsulfuron|mol|1|dock49
  -GOLD-   2292221543D 1   1.00000     0.00000
 
 35 36  0  0  0  0  0  0  0  0  1 V2000
   60.0187  -73.6281  -15.1070 C   0  0  0  0  0  0  0  0  0  0  0  0
   60.0688  -75.1267  -15.2588 C   0  0  0  0  0  0  0  0  0  0  0  0
   61.1095  -75.8010  -14.8029 N   0  0  0  0  0  0  0  0  0  0  0  0
   61.1563  -77.1236  -14.9355 C   0  0  0  0  0  0  0  0  0  0  0  0
   60.1556  -77.7656  -15.5268 N   0  0  0  0  0  0  0  0  0  0  0  0
   59.1121  -77.0848  -15.9834 C   0  0  0  0  0  0  0  0  0  0  0  0
   59.0688  -75.7641  -15.8430 N   0  0  0  0  0  0  0  0  0  0  0  0
   58.0907  -77.7355  -16.5869 O   0  0  0  0  0  0  0  0  0  0  0  0
   57.6484  -78.7444  -15.6768 C   0  0  0  0  0  0  0  0  0  0  0  0
   62.2479  -77.8304  -14.4578 N   0  0  0  0  0  0  0  0  0  0  0  0
   63.0694  -78.4640  -15.3181 C   0  0  0  0  0  0  0  0  0  0  0  0
   62.8525  -78.4154  -16.5133 O   0  0  0  0  0  0  0  0  0  0  0  0
   64.1313  -79.1517  -14.8534 N   0  0  0  0  0  0  0  0  0  0  0  0
   65.0677  -80.0335  -15.8965 S   0  0  0  0  0  0  0  0  0  0  0  0
   65.1381  -79.2693  -17.0923 O   0  0  0  0  0  0  0  0  0  0  0  0
   66.1836  -80.4742  -15.1351 O   0  0  0  0  0  0  0  0  0  0  0  0
   64.1662  -81.4895  -16.3112 C   0  0  0  0  0  0  0  0  0  0  0  0
   63.3586  -82.0947  -15.3672 C   0  0  0  0  0  0  0  0  0  0  0  0
   62.6512  -83.2372  -15.6923 C   0  0  0  0  0  0  0  0  0  0  0  0
   62.7516  -83.7750  -16.9617 C   0  0  0  0  0  0  0  0  0  0  0  0
   63.5595  -83.1708  -17.9068 C   0  0  0  0  0  0  0  0  0  0  0  0
   64.2624  -82.0239  -17.5839 C   0  0  0  0  0  0  0  0  0  0  0  0
   65.2767  -81.2643  -18.7704 Cl  0  0  0  0  0  0  0  0  0  0  0  0
   60.4745  -73.1591  -15.9790 H   0  0  0  0  0  0  0  0  0  0  0  0
   58.9809  -73.3060  -15.0221 H   0  0  0  0  0  0  0  0  0  0  0  0
   60.5646  -73.3353  -14.2101 H   0  0  0  0  0  0  0  0  0  0  0  0
   56.8216  -79.2980  -16.1218 H   0  0  0  0  0  0  0  0  0  0  0  0
   58.4706  -79.4277  -15.4642 H   0  0  0  0  0  0  0  0  0  0  0  0
   57.3156  -78.2771  -14.7500 H   0  0  0  0  0  0  0  0  0  0  0  0
   62.4209  -77.8693  -13.5041 H   0  0  0  0  0  0  0  0  0  0  0  0
   64.3472  -79.1299  -13.9080 H   0  0  0  0  0  0  0  0  0  0  0  0
   63.2803  -81.6753  -14.3750 H   0  0  0  0  0  0  0  0  0  0  0  0
   62.0202  -83.7099  -14.9543 H   0  0  0  0  0  0  0  0  0  0  0  0
   62.1990  -84.6677  -17.2150 H   0  0  0  0  0  0  0  0  0  0  0  0
   63.6385  -83.5916  -18.8982 H   0  0  0  0  0  0  0  0  0  0  0  0
  1  2  1  0  0  0  0
  2  3  2  0  0  0  0
  3  4  1  0  0  0  0
  4  5  2  0  0  0  0
  5  6  1  0  0  0  0
  6  7  2  0  0  0  0
  2  7  1  0  0  0  0
  6  8  1  0  0  0  0
  8  9  1  0  0  0  0
  4 10  1  0  0  0  0
 10 11  1  0  0  0  0
 11 12  2  0  0  0  0
 11 13  1  0  0  0  0
 13 14  1  0  0  0  0
 14 15  2  0  0  0  0
 14 16  2  0  0  0  0
 14 17  1  0  0  0  0
 17 18  2  0  0  0  0
 18 19  1  0  0  0  0
 19 20  2  0  0  0  0
 20 21  1  0  0  0  0
 21 22  2  0  0  0  0
 17 22  1  0  0  0  0
 22 23  1  0  0  0  0
  1 24  1  0  0  0  0
  1 25  1  0  0  0  0
  1 26  1  0  0  0  0
  9 27  1  0  0  0  0
  9 28  1  0  0  0  0
  9 29  1  0  0  0  0
 10 30  1  0  0  0  0
 13 31  1  0  0  0  0
 18 32  1  0  0  0  0
 19 33  1  0  0  0  0
 20 34  1  0  0  0  0
 21 35  1  0  0  0  0
M  END
> <Gold.Version>
2021.2.0

> <Gold.Id.Protein>
5K6Q|5K6Q_protein|mol2

> <Gold.PLP.Fitness>
25.5125

> <Gold.PLP.PLP>
-15.4344

> <Gold.PLP.part.hbond>
-6.6380

> <Gold.PLP.part.metal>
0.0000

> <Gold.PLP.part.buried>
-4.2274

> <Gold.PLP.part.nonpolar>
-5.4743

> <Gold.PLP.part.repulsive>
0.3532

> <Gold.PLP.ligand.clash>
0.0000

> <Gold.PLP.ligand.torsion>
2.3323

> <Gold.PLP.Chemscore.Hbond>
3.8240

> <Gold.PLP.Chemscore.CHOScore>
0.0000

> <Gold.PLP.Chemscore.Metal>
0.0000

> <Gold.Chemscore.Hbonds>
donor molecule, donor type, donor heavy atom, donor atom, acceptor molecule, acceptor atom, score
      L1  H    10    30       P1  2230  1.00
      L1  H    13    31       P1  2231  0.99
      P1  H  2242  7198       L1    16  0.83
      P1  H  4723  8580       L1    16  1.00

> <Gold.PLP.Chemscore.Internal.Correction>
3.2706

> <Gold.Protein.RotatedTorsions>
[ 5877 1703 1702 1700 ] final   49.46 input   60.01 | X-H torsion
[ 6057 1881 1880 1877 ] final  103.55 input   60.00 | X-H torsion
[ 7193 2255 2254 2251 ] final  -22.62 input   60.00 | X-H torsion
[ 7182 2269 2268 2267 ] final  176.37 input   59.99 | X-H torsion
[ 6931 4361 4360 4357 ] final  -13.11 input   60.01 | X-H torsion
[ 8180 4471 4470 4468 ] final   68.19 input   60.00 | X-H torsion
[ 8184 4473 4472 4470 ] final  -69.60 input   60.00 | X-H torsion
[ 8203 4505 4504 4503 ] final  111.41 input   60.00 | X-H torsion
[ 8212 4507 4506 4504 ] final   61.77 input   60.00 | X-H torsion
[ 8221 4509 4508 4506 ] final -149.41 input   60.00 | X-H torsion

> <Gold.Protein.ActiveResidues>
 TYR305  THR331  LEU332  MET333  LEU349  GLY350  MET351  HIS352  GLY353  ASN358 
 VAL372  ARG373  PHE374  ASP375  ASP376  ARG377  VAL378  THR379  GLY380  LYS381 
 LEU382  PHE385  ASN404  GLY508  GLY509  TRP574  ILE651  PRO652  SER653  GLY654 
 GLY655  FAD702  HOH839  HOH865  HOH881  HOH913  HOH945  HOH958  HOH960  HOH966 
 HOH968 

> <Gold.Protein.RotatedAtoms>
   61.2470  -73.7308   -3.1792 H   0  0  0  0  0  0  0  0  0  0  0  0  # atno 5877 bound_to 1703
   62.4540  -67.5950   -5.7409 H   0  0  0  0  0  0  0  0  0  0  0  0  # atno 6057 bound_to 1881
   69.2471  -80.8801  -11.1423 H   0  0  0  0  0  0  0  0  0  0  0  0  # atno 6931 bound_to 4361
   62.4149  -89.5259   -0.9129 H   0  0  0  0  0  0  0  0  0  0  0  0  # atno 7182 bound_to 2269
   61.9921  -90.4660   -2.2109 H   0  0  0  0  0  0  0  0  0  0  0  0  # atno 7183 bound_to 2269
   63.5915  -90.2171   -1.8538 H   0  0  0  0  0  0  0  0  0  0  0  0  # atno 7184 bound_to 2269
   62.0851  -79.7859   -5.9140 H   0  0  0  0  0  0  0  0  0  0  0  0  # atno 7193 bound_to 2255
   52.5685  -69.3842   -6.9632 H   0  0  0  0  0  0  0  0  0  0  0  0  # atno 8180 bound_to 4471
   51.3089  -67.8624   -9.3224 H   0  0  0  0  0  0  0  0  0  0  0  0  # atno 8184 bound_to 4473
   64.5991  -73.3720  -11.2908 H   0  0  0  0  0  0  0  0  0  0  0  0  # atno 8203 bound_to 4505
   63.2395  -70.0249  -11.8003 H   0  0  0  0  0  0  0  0  0  0  0  0  # atno 8212 bound_to 4507
   62.3810  -71.6800   -7.0502 H   0  0  0  0  0  0  0  0  0  0  0  0  # atno 8221 bound_to 4509
   60.0315  -72.8299   -3.7786 LP  0  0  0  0  0  0  0  0  0  0  0  0  # atno 9612 bound_to 1703
   59.7455  -74.3526   -3.2626 LP  0  0  0  0  0  0  0  0  0  0  0  0  # atno 9613 bound_to 1703
   62.6122  -66.8907   -4.2824 LP  0  0  0  0  0  0  0  0  0  0  0  0  # atno 9616 bound_to 1881
   61.3417  -67.8707   -4.5854 LP  0  0  0  0  0  0  0  0  0  0  0  0  # atno 9617 bound_to 1881
   60.4635  -79.7700   -5.7792 LP  0  0  0  0  0  0  0  0  0  0  0  0  # atno 9661 bound_to 2255
   61.3036  -81.1191   -5.4040 LP  0  0  0  0  0  0  0  0  0  0  0  0  # atno 9662 bound_to 2255
   68.5388  -81.2267  -12.5658 LP  0  0  0  0  0  0  0  0  0  0  0  0  # atno 9687 bound_to 4361
   70.1441  -81.4553  -12.3722 LP  0  0  0  0  0  0  0  0  0  0  0  0  # atno 9688 bound_to 4361
   53.8276  -70.1452   -7.6586 LP  0  0  0  0  0  0  0  0  0  0  0  0  # atno 9695 bound_to 4471
   52.5013  -69.7825   -8.5396 LP  0  0  0  0  0  0  0  0  0  0  0  0  # atno 9696 bound_to 4471
   50.6676  -66.9623   -8.1280 LP  0  0  0  0  0  0  0  0  0  0  0  0  # atno 9697 bound_to 4473
   51.1828  -68.4816   -7.8228 LP  0  0  0  0  0  0  0  0  0  0  0  0  # atno 9698 bound_to 4473
   65.0823  -72.0068  -12.0330 LP  0  0  0  0  0  0  0  0  0  0  0  0  # atno 9706 bound_to 4505
   63.4910  -72.3490  -11.9022 LP  0  0  0  0  0  0  0  0  0  0  0  0  # atno 9707 bound_to 4505
   63.8590  -69.2449  -10.5136 LP  0  0  0  0  0  0  0  0  0  0  0  0  # atno 9708 bound_to 4507
   62.2454  -69.2604  -10.7633 LP  0  0  0  0  0  0  0  0  0  0  0  0  # atno 9709 bound_to 4507
   63.9326  -71.6824   -7.5406 LP  0  0  0  0  0  0  0  0  0  0  0  0  # atno 9710 bound_to 4509
   62.8136  -72.5459   -8.3584 LP  0  0  0  0  0  0  0  0  0  0  0  0  # atno 9711 bound_to 4509

$$$$
