C12H12ClN5O4S|Chlorsulfuron|mol|1|dock36
  -GOLD-   2292221543D 1   1.00000     0.00000
 
 35 36  0  0  0  0  0  0  0  0  1 V2000
   63.0192  -74.5202  -18.4127 C   0  0  0  0  0  0  0  0  0  0  0  0
   62.2487  -75.1025  -17.2558 C   0  0  0  0  0  0  0  0  0  0  0  0
   62.7971  -76.0406  -16.5040 N   0  0  0  0  0  0  0  0  0  0  0  0
   62.1193  -76.5563  -15.4823 C   0  0  0  0  0  0  0  0  0  0  0  0
   60.8907  -76.1271  -15.2187 N   0  0  0  0  0  0  0  0  0  0  0  0
   60.3434  -75.1848  -15.9760 C   0  0  0  0  0  0  0  0  0  0  0  0
   61.0278  -74.6698  -16.9920 N   0  0  0  0  0  0  0  0  0  0  0  0
   59.0914  -74.7454  -15.7109 O   0  0  0  0  0  0  0  0  0  0  0  0
   59.2003  -73.3572  -15.3897 C   0  0  0  0  0  0  0  0  0  0  0  0
   62.6943  -77.5401  -14.6945 N   0  0  0  0  0  0  0  0  0  0  0  0
   63.4586  -78.4953  -15.2602 C   0  0  0  0  0  0  0  0  0  0  0  0
   63.6433  -78.4936  -16.4618 O   0  0  0  0  0  0  0  0  0  0  0  0
   64.0180  -79.4526  -14.4938 N   0  0  0  0  0  0  0  0  0  0  0  0
   64.8517  -80.6968  -15.2003 S   0  0  0  0  0  0  0  0  0  0  0  0
   66.0393  -80.1179  -15.7234 O   0  0  0  0  0  0  0  0  0  0  0  0
   64.8002  -81.7719  -14.2726 O   0  0  0  0  0  0  0  0  0  0  0  0
   63.9211  -81.2270  -16.5994 C   0  0  0  0  0  0  0  0  0  0  0  0
   64.5389  -81.3671  -17.8276 C   0  0  0  0  0  0  0  0  0  0  0  0
   63.8089  -81.7830  -18.9256 C   0  0  0  0  0  0  0  0  0  0  0  0
   62.4607  -82.0586  -18.7957 C   0  0  0  0  0  0  0  0  0  0  0  0
   61.8414  -81.9184  -17.5678 C   0  0  0  0  0  0  0  0  0  0  0  0
   62.5728  -81.5085  -16.4674 C   0  0  0  0  0  0  0  0  0  0  0  0
   61.7959  -81.3328  -14.9249 Cl  0  0  0  0  0  0  0  0  0  0  0  0
   62.8195  -75.1025  -19.3121 H   0  0  0  0  0  0  0  0  0  0  0  0
   62.7096  -73.4874  -18.5723 H   0  0  0  0  0  0  0  0  0  0  0  0
   64.0859  -74.5496  -18.1903 H   0  0  0  0  0  0  0  0  0  0  0  0
   58.2111  -72.9570  -15.1675 H   0  0  0  0  0  0  0  0  0  0  0  0
   59.8456  -73.2351  -14.5198 H   0  0  0  0  0  0  0  0  0  0  0  0
   59.6274  -72.8206  -16.2370 H   0  0  0  0  0  0  0  0  0  0  0  0
   62.5469  -77.5416  -13.7357 H   0  0  0  0  0  0  0  0  0  0  0  0
   63.9323  -79.4126  -13.5285 H   0  0  0  0  0  0  0  0  0  0  0  0
   65.5922  -81.1513  -17.9299 H   0  0  0  0  0  0  0  0  0  0  0  0
   64.2921  -81.8924  -19.8852 H   0  0  0  0  0  0  0  0  0  0  0  0
   61.8908  -82.3832  -19.6538 H   0  0  0  0  0  0  0  0  0  0  0  0
   60.7878  -82.1329  -17.4666 H   0  0  0  0  0  0  0  0  0  0  0  0
  1  2  1  0  0  0  0
  2  3  2  0  0  0  0
  3  4  1  0  0  0  0
  4  5  2  0  0  0  0
  5  6  1  0  0  0  0
  6  7  2  0  0  0  0
  2  7  1  0  0  0  0
  6  8  1  0  0  0  0
  8  9  1  0  0  0  0
  4 10  1  0  0  0  0
 10 11  1  0  0  0  0
 11 12  2  0  0  0  0
 11 13  1  0  0  0  0
 13 14  1  0  0  0  0
 14 15  2  0  0  0  0
 14 16  2  0  0  0  0
 14 17  1  0  0  0  0
 17 18  2  0  0  0  0
 18 19  1  0  0  0  0
 19 20  2  0  0  0  0
 20 21  1  0  0  0  0
 21 22  2  0  0  0  0
 17 22  1  0  0  0  0
 22 23  1  0  0  0  0
  1 24  1  0  0  0  0
  1 25  1  0  0  0  0
  1 26  1  0  0  0  0
  9 27  1  0  0  0  0
  9 28  1  0  0  0  0
  9 29  1  0  0  0  0
 10 30  1  0  0  0  0
 13 31  1  0  0  0  0
 18 32  1  0  0  0  0
 19 33  1  0  0  0  0
 20 34  1  0  0  0  0
 21 35  1  0  0  0  0
M  END
> <Gold.Version>
2021.2.0

> <Gold.Id.Protein>
5K6Q|5K6Q_protein|mol2

> <Gold.PLP.Fitness>
21.3996

> <Gold.PLP.PLP>
-16.5379

> <Gold.PLP.part.hbond>
-5.2782

> <Gold.PLP.part.metal>
0.0000

> <Gold.PLP.part.buried>
-4.4471

> <Gold.PLP.part.nonpolar>
-8.5123

> <Gold.PLP.part.repulsive>
0.5179

> <Gold.PLP.ligand.clash>
0.0000

> <Gold.PLP.ligand.torsion>
1.9597

> <Gold.PLP.Chemscore.Hbond>
1.8369

> <Gold.PLP.Chemscore.CHOScore>
0.0000

> <Gold.PLP.Chemscore.Metal>
0.0000

> <Gold.Chemscore.Hbonds>
donor molecule, donor type, donor heavy atom, donor atom, acceptor molecule, acceptor atom, score
      L1  H    10    30       P1  2230  0.41
      L1  H    13    31       P1  2231  1.00
      P1  H  2242  7198       L1    15  0.33
      P1  H  4723  8580       L1    16  0.10

> <Gold.PLP.Chemscore.Internal.Correction>
3.2706

> <Gold.Protein.RotatedTorsions>
[ 5877 1703 1702 1700 ] final  -90.64 input   60.01 | X-H torsion
[ 6057 1881 1880 1877 ] final  -61.29 input   60.00 | X-H torsion
[ 7193 2255 2254 2251 ] final  171.76 input   60.00 | X-H torsion
[ 7182 2269 2268 2267 ] final   41.44 input   59.99 | X-H torsion
[ 6931 4361 4360 4357 ] final  134.56 input   60.01 | X-H torsion
[ 8180 4471 4470 4468 ] final  -59.00 input   60.00 | X-H torsion
[ 8184 4473 4472 4470 ] final  150.14 input   60.00 | X-H torsion
[ 8203 4505 4504 4503 ] final  159.20 input   60.00 | X-H torsion
[ 8212 4507 4506 4504 ] final  -16.07 input   60.00 | X-H torsion
[ 8221 4509 4508 4506 ] final   79.64 input   60.00 | X-H torsion

> <Gold.Protein.ActiveResidues>
 TYR305  THR331  LEU332  MET333  LEU349  GLY350  MET351  HIS352  GLY353  ASN358 
 VAL372  ARG373  PHE374  ASP375  ASP376  ARG377  VAL378  THR379  GLY380  LYS381 
 LEU382  PHE385  ASN404  GLY508  GLY509  TRP574  ILE651  PRO652  SER653  GLY654 
 GLY655  FAD702  HOH839  HOH865  HOH881  HOH913  HOH945  HOH958  HOH960  HOH966 
 HOH968 

> <Gold.Protein.RotatedAtoms>
   59.7550  -73.0059   -3.7677 H   0  0  0  0  0  0  0  0  0  0  0  0  # atno 5877 bound_to 1703
   62.0226  -67.1704   -3.9861 H   0  0  0  0  0  0  0  0  0  0  0  0  # atno 6057 bound_to 1881
   69.8545  -81.5186  -12.7101 H   0  0  0  0  0  0  0  0  0  0  0  0  # atno 6931 bound_to 4361
   63.4972  -90.3520   -2.0403 H   0  0  0  0  0  0  0  0  0  0  0  0  # atno 7182 bound_to 2269
   62.6610  -89.5074   -0.8849 H   0  0  0  0  0  0  0  0  0  0  0  0  # atno 7183 bound_to 2269
   61.8397  -90.3497   -2.0525 H   0  0  0  0  0  0  0  0  0  0  0  0  # atno 7184 bound_to 2269
   60.3925  -80.4551   -5.5424 H   0  0  0  0  0  0  0  0  0  0  0  0  # atno 7193 bound_to 2255
   53.8111  -70.1663   -7.7736 H   0  0  0  0  0  0  0  0  0  0  0  0  # atno 8180 bound_to 4471
   50.6711  -67.1393   -7.8490 H   0  0  0  0  0  0  0  0  0  0  0  0  # atno 8184 bound_to 4473
   63.8552  -73.2564  -11.3825 H   0  0  0  0  0  0  0  0  0  0  0  0  # atno 8203 bound_to 4505
   64.0454  -69.6118  -11.0497 H   0  0  0  0  0  0  0  0  0  0  0  0  # atno 8212 bound_to 4507
   63.9574  -71.7821   -7.6877 H   0  0  0  0  0  0  0  0  0  0  0  0  # atno 8221 bound_to 4509
   60.0245  -74.4881   -3.1526 LP  0  0  0  0  0  0  0  0  0  0  0  0  # atno 9612 bound_to 1703
   61.2551  -73.4244   -3.2960 LP  0  0  0  0  0  0  0  0  0  0  0  0  # atno 9613 bound_to 1703
   61.5088  -68.0352   -5.2653 LP  0  0  0  0  0  0  0  0  0  0  0  0  # atno 9616 bound_to 1881
   62.8795  -67.1537   -5.3695 LP  0  0  0  0  0  0  0  0  0  0  0  0  # atno 9617 bound_to 1881
   61.9696  -80.8558   -5.5502 LP  0  0  0  0  0  0  0  0  0  0  0  0  # atno 9661 bound_to 2255
   61.5021  -79.3594   -6.0071 LP  0  0  0  0  0  0  0  0  0  0  0  0  # atno 9662 bound_to 2255
   69.6847  -80.9724  -11.1866 LP  0  0  0  0  0  0  0  0  0  0  0  0  # atno 9687 bound_to 4361
   68.3865  -81.0666  -12.1728 LP  0  0  0  0  0  0  0  0  0  0  0  0  # atno 9688 bound_to 4361
   52.4136  -69.7274   -8.4824 LP  0  0  0  0  0  0  0  0  0  0  0  0  # atno 9695 bound_to 4471
   52.6637  -69.4127   -6.8997 LP  0  0  0  0  0  0  0  0  0  0  0  0  # atno 9696 bound_to 4471
   51.3029  -68.6177   -8.1003 LP  0  0  0  0  0  0  0  0  0  0  0  0  # atno 9697 bound_to 4473
   51.1898  -67.5544   -9.3345 LP  0  0  0  0  0  0  0  0  0  0  0  0  # atno 9698 bound_to 4473
   65.3301  -72.6345  -11.6755 LP  0  0  0  0  0  0  0  0  0  0  0  0  # atno 9706 bound_to 4505
   63.9923  -71.8375  -12.1673 LP  0  0  0  0  0  0  0  0  0  0  0  0  # atno 9707 bound_to 4505
   62.7101  -69.0222  -10.3305 LP  0  0  0  0  0  0  0  0  0  0  0  0  # atno 9708 bound_to 4507
   62.5827  -69.8991  -11.7023 LP  0  0  0  0  0  0  0  0  0  0  0  0  # atno 9709 bound_to 4507
   62.6470  -72.5351   -8.2910 LP  0  0  0  0  0  0  0  0  0  0  0  0  # atno 9710 bound_to 4509
   62.5116  -71.5904   -6.9659 LP  0  0  0  0  0  0  0  0  0  0  0  0  # atno 9711 bound_to 4509

$$$$
