C12H12ClN5O4S|Chlorsulfuron|mol|1|dock6
  -GOLD-   2292221533D 1   1.00000     0.00000
 
 35 36  0  0  0  0  0  0  0  0  1 V2000
   67.5104  -72.2769  -16.7589 C   0  0  0  0  0  0  0  0  0  0  0  0
   67.2608  -73.2488  -15.6345 C   0  0  0  0  0  0  0  0  0  0  0  0
   66.0365  -73.4146  -15.1661 N   0  0  0  0  0  0  0  0  0  0  0  0
   65.8133  -74.2717  -14.1738 C   0  0  0  0  0  0  0  0  0  0  0  0
   66.8226  -74.9606  -13.6543 N   0  0  0  0  0  0  0  0  0  0  0  0
   68.0507  -74.7913  -14.1274 C   0  0  0  0  0  0  0  0  0  0  0  0
   68.2664  -73.9375  -15.1226 N   0  0  0  0  0  0  0  0  0  0  0  0
   69.0819  -75.4912  -13.6003 O   0  0  0  0  0  0  0  0  0  0  0  0
   70.2721  -75.0074  -14.2258 C   0  0  0  0  0  0  0  0  0  0  0  0
   64.5296  -74.4450  -13.6825 N   0  0  0  0  0  0  0  0  0  0  0  0
   63.7147  -75.3649  -14.2360 C   0  0  0  0  0  0  0  0  0  0  0  0
   64.1062  -76.0424  -15.1664 O   0  0  0  0  0  0  0  0  0  0  0  0
   62.4658  -75.5335  -13.7582 N   0  0  0  0  0  0  0  0  0  0  0  0
   61.4225  -76.5723  -14.5162 S   0  0  0  0  0  0  0  0  0  0  0  0
   62.1536  -77.7736  -14.7197 O   0  0  0  0  0  0  0  0  0  0  0  0
   60.1929  -76.4670  -13.8117 O   0  0  0  0  0  0  0  0  0  0  0  0
   61.1095  -75.9242  -16.1245 C   0  0  0  0  0  0  0  0  0  0  0  0
   61.4082  -76.6779  -17.2436 C   0  0  0  0  0  0  0  0  0  0  0  0
   61.1629  -76.1695  -18.5056 C   0  0  0  0  0  0  0  0  0  0  0  0
   60.6191  -74.9069  -18.6489 C   0  0  0  0  0  0  0  0  0  0  0  0
   60.3202  -74.1517  -17.5303 C   0  0  0  0  0  0  0  0  0  0  0  0
   60.5595  -74.6625  -16.2671 C   0  0  0  0  0  0  0  0  0  0  0  0
   60.1839  -73.7149  -14.8619 Cl  0  0  0  0  0  0  0  0  0  0  0  0
   67.7306  -71.2925  -16.3462 H   0  0  0  0  0  0  0  0  0  0  0  0
   68.3573  -72.6192  -17.3537 H   0  0  0  0  0  0  0  0  0  0  0  0
   66.6239  -72.2162  -17.3902 H   0  0  0  0  0  0  0  0  0  0  0  0
   71.1343  -75.5447  -13.8307 H   0  0  0  0  0  0  0  0  0  0  0  0
   70.2070  -75.1661  -15.3022 H   0  0  0  0  0  0  0  0  0  0  0  0
   70.3828  -73.9424  -14.0216 H   0  0  0  0  0  0  0  0  0  0  0  0
   64.2172  -73.9043  -12.9402 H   0  0  0  0  0  0  0  0  0  0  0  0
   62.1782  -75.0464  -12.9702 H   0  0  0  0  0  0  0  0  0  0  0  0
   61.8338  -77.6643  -17.1322 H   0  0  0  0  0  0  0  0  0  0  0  0
   61.3965  -76.7590  -19.3799 H   0  0  0  0  0  0  0  0  0  0  0  0
   60.4279  -74.5101  -19.6350 H   0  0  0  0  0  0  0  0  0  0  0  0
   59.8961  -73.1649  -17.6424 H   0  0  0  0  0  0  0  0  0  0  0  0
  1  2  1  0  0  0  0
  2  3  2  0  0  0  0
  3  4  1  0  0  0  0
  4  5  2  0  0  0  0
  5  6  1  0  0  0  0
  6  7  2  0  0  0  0
  2  7  1  0  0  0  0
  6  8  1  0  0  0  0
  8  9  1  0  0  0  0
  4 10  1  0  0  0  0
 10 11  1  0  0  0  0
 11 12  2  0  0  0  0
 11 13  1  0  0  0  0
 13 14  1  0  0  0  0
 14 15  2  0  0  0  0
 14 16  2  0  0  0  0
 14 17  1  0  0  0  0
 17 18  2  0  0  0  0
 18 19  1  0  0  0  0
 19 20  2  0  0  0  0
 20 21  1  0  0  0  0
 21 22  2  0  0  0  0
 17 22  1  0  0  0  0
 22 23  1  0  0  0  0
  1 24  1  0  0  0  0
  1 25  1  0  0  0  0
  1 26  1  0  0  0  0
  9 27  1  0  0  0  0
  9 28  1  0  0  0  0
  9 29  1  0  0  0  0
 10 30  1  0  0  0  0
 13 31  1  0  0  0  0
 18 32  1  0  0  0  0
 19 33  1  0  0  0  0
 20 34  1  0  0  0  0
 21 35  1  0  0  0  0
M  END
> <Gold.Version>
2021.2.0

> <Gold.Id.Protein>
5K6Q|5K6Q_protein|mol2

> <Gold.PLP.Fitness>
30.8338

> <Gold.PLP.PLP>
-28.3349

> <Gold.PLP.part.hbond>
-4.2045

> <Gold.PLP.part.metal>
0.0000

> <Gold.PLP.part.buried>
-5.3559

> <Gold.PLP.part.nonpolar>
-21.0270

> <Gold.PLP.part.repulsive>
0.9753

> <Gold.PLP.ligand.clash>
2.2253

> <Gold.PLP.ligand.torsion>
2.3436

> <Gold.PLP.Chemscore.Hbond>
2.0400

> <Gold.PLP.Chemscore.CHOScore>
0.0000

> <Gold.PLP.Chemscore.Metal>
0.0000

> <Gold.Chemscore.Hbonds>
donor molecule, donor type, donor heavy atom, donor atom, acceptor molecule, acceptor atom, score
      L1  H    10    30       P1  4505  0.39
      L1  H    13    31       P1  2222  0.65
      P1  H  2239  7163       L1     8  1.00

> <Gold.PLP.Chemscore.Internal.Correction>
3.2914

> <Gold.Protein.RotatedTorsions>
[ 5877 1703 1702 1700 ] final   92.35 input   60.01 | X-H torsion
[ 6057 1881 1880 1877 ] final -178.68 input   60.00 | X-H torsion
[ 7193 2255 2254 2251 ] final  109.33 input   60.00 | X-H torsion
[ 7182 2269 2268 2267 ] final -176.88 input   59.99 | X-H torsion
[ 6931 4361 4360 4357 ] final -138.84 input   60.01 | X-H torsion
[ 8180 4471 4470 4468 ] final  -84.64 input   60.00 | X-H torsion
[ 8184 4473 4472 4470 ] final  -53.58 input   60.00 | X-H torsion
[ 8203 4505 4504 4503 ] final  -35.51 input   60.00 | X-H torsion
[ 8212 4507 4506 4504 ] final  106.65 input   60.00 | X-H torsion
[ 8221 4509 4508 4506 ] final   51.96 input   60.00 | X-H torsion

> <Gold.Protein.ActiveResidues>
 TYR305  THR331  LEU332  MET333  LEU349  GLY350  MET351  HIS352  GLY353  ASN358 
 VAL372  ARG373  PHE374  ASP375  ASP376  ARG377  VAL378  THR379  GLY380  LYS381 
 LEU382  PHE385  ASN404  GLY508  GLY509  TRP574  ILE651  PRO652  SER653  GLY654 
 GLY655  FAD702  HOH839  HOH865  HOH881  HOH913  HOH945  HOH958  HOH960  HOH966 
 HOH968 

> <Gold.Protein.RotatedAtoms>
   60.8938  -74.2999   -3.0382 H   0  0  0  0  0  0  0  0  0  0  0  0  # atno 5877 bound_to 1703
   61.4927  -68.0328   -5.2252 H   0  0  0  0  0  0  0  0  0  0  0  0  # atno 6057 bound_to 1881
   68.5989  -81.2616  -12.6293 H   0  0  0  0  0  0  0  0  0  0  0  0  # atno 6931 bound_to 4361
   62.3081  -89.5465   -0.9423 H   0  0  0  0  0  0  0  0  0  0  0  0  # atno 7182 bound_to 2269
   62.0767  -90.5101   -2.2710 H   0  0  0  0  0  0  0  0  0  0  0  0  # atno 7183 bound_to 2269
   63.6138  -90.1523   -1.7643 H   0  0  0  0  0  0  0  0  0  0  0  0  # atno 7184 bound_to 2269
   61.1101  -81.0912   -5.3938 H   0  0  0  0  0  0  0  0  0  0  0  0  # atno 7193 bound_to 2255
   53.6658  -70.2052   -8.1609 H   0  0  0  0  0  0  0  0  0  0  0  0  # atno 8180 bound_to 4471
   51.3805  -68.0992   -9.2393 H   0  0  0  0  0  0  0  0  0  0  0  0  # atno 8184 bound_to 4473
   64.7150  -71.8038  -12.1566 H   0  0  0  0  0  0  0  0  0  0  0  0  # atno 8203 bound_to 4505
   62.5503  -69.8819  -11.6759 H   0  0  0  0  0  0  0  0  0  0  0  0  # atno 8212 bound_to 4507
   63.8886  -72.0549   -8.0362 H   0  0  0  0  0  0  0  0  0  0  0  0  # atno 8221 bound_to 4509
   60.7076  -72.8022   -3.6467 LP  0  0  0  0  0  0  0  0  0  0  0  0  # atno 9612 bound_to 1703
   59.4251  -73.8071   -3.5365 LP  0  0  0  0  0  0  0  0  0  0  0  0  # atno 9613 bound_to 1703
   62.8653  -67.1768   -5.4027 LP  0  0  0  0  0  0  0  0  0  0  0  0  # atno 9616 bound_to 1881
   62.0566  -67.1437   -3.9844 LP  0  0  0  0  0  0  0  0  0  0  0  0  # atno 9617 bound_to 1881
   62.1736  -79.9545   -5.8681 LP  0  0  0  0  0  0  0  0  0  0  0  0  # atno 9661 bound_to 2255
   60.5755  -79.6201   -5.8389 LP  0  0  0  0  0  0  0  0  0  0  0  0  # atno 9662 bound_to 2255
   70.1807  -81.4338  -12.2882 LP  0  0  0  0  0  0  0  0  0  0  0  0  # atno 9687 bound_to 4361
   69.1549  -80.8640  -11.1525 LP  0  0  0  0  0  0  0  0  0  0  0  0  # atno 9688 bound_to 4361
   52.1800  -69.5421   -8.1889 LP  0  0  0  0  0  0  0  0  0  0  0  0  # atno 9695 bound_to 4471
   53.0438  -69.5588   -6.8032 LP  0  0  0  0  0  0  0  0  0  0  0  0  # atno 9696 bound_to 4471
   50.7026  -66.8952   -8.3797 LP  0  0  0  0  0  0  0  0  0  0  0  0  # atno 9697 bound_to 4473
   51.0756  -68.3102   -7.6548 LP  0  0  0  0  0  0  0  0  0  0  0  0  # atno 9698 bound_to 4473
   63.4626  -72.7325  -11.6904 LP  0  0  0  0  0  0  0  0  0  0  0  0  # atno 9706 bound_to 4505
   64.9939  -73.2024  -11.3729 LP  0  0  0  0  0  0  0  0  0  0  0  0  # atno 9707 bound_to 4505
   64.0476  -69.6344  -11.0887 LP  0  0  0  0  0  0  0  0  0  0  0  0  # atno 9708 bound_to 4507
   62.7507  -69.0149  -10.3135 LP  0  0  0  0  0  0  0  0  0  0  0  0  # atno 9709 bound_to 4507
   62.3025  -72.4187   -8.0241 LP  0  0  0  0  0  0  0  0  0  0  0  0  # atno 9710 bound_to 4509
   62.9255  -71.4320   -6.8819 LP  0  0  0  0  0  0  0  0  0  0  0  0  # atno 9711 bound_to 4509

$$$$
