C12H12ClN5O4S|Chlorsulfuron|mol|1|dock24
  -GOLD-   2292221533D 1   1.00000     0.00000
 
 35 36  0  0  0  0  0  0  0  0  1 V2000
   64.2197  -75.0357  -18.1070 C   0  0  0  0  0  0  0  0  0  0  0  0
   64.5658  -75.2946  -16.6632 C   0  0  0  0  0  0  0  0  0  0  0  0
   64.3204  -76.4777  -16.1285 N   0  0  0  0  0  0  0  0  0  0  0  0
   64.6248  -76.7090  -14.8545 C   0  0  0  0  0  0  0  0  0  0  0  0
   65.1757  -75.7492  -14.1207 N   0  0  0  0  0  0  0  0  0  0  0  0
   65.4205  -74.5624  -14.6613 C   0  0  0  0  0  0  0  0  0  0  0  0
   65.1191  -74.3393  -15.9361 N   0  0  0  0  0  0  0  0  0  0  0  0
   65.9813  -73.5817  -13.9164 O   0  0  0  0  0  0  0  0  0  0  0  0
   67.3126  -74.0032  -13.6134 C   0  0  0  0  0  0  0  0  0  0  0  0
   64.3671  -77.9494  -14.2940 N   0  0  0  0  0  0  0  0  0  0  0  0
   64.6555  -79.0724  -14.9811 C   0  0  0  0  0  0  0  0  0  0  0  0
   65.1417  -78.9969  -16.0927 O   0  0  0  0  0  0  0  0  0  0  0  0
   64.4047  -80.2792  -14.4358 N   0  0  0  0  0  0  0  0  0  0  0  0
   64.6406  -81.6554  -15.3263 S   0  0  0  0  0  0  0  0  0  0  0  0
   65.8150  -81.4234  -16.0918 O   0  0  0  0  0  0  0  0  0  0  0  0
   64.4465  -82.7366  -14.4249 O   0  0  0  0  0  0  0  0  0  0  0  0
   63.3229  -81.7612  -16.4914 C   0  0  0  0  0  0  0  0  0  0  0  0
   63.5993  -81.8161  -17.8442 C   0  0  0  0  0  0  0  0  0  0  0  0
   62.5656  -81.8991  -18.7585 C   0  0  0  0  0  0  0  0  0  0  0  0
   61.2550  -81.9266  -18.3201 C   0  0  0  0  0  0  0  0  0  0  0  0
   60.9772  -81.8713  -16.9671 C   0  0  0  0  0  0  0  0  0  0  0  0
   62.0114  -81.7949  -16.0515 C   0  0  0  0  0  0  0  0  0  0  0  0
   61.6633  -81.7259  -14.3522 Cl  0  0  0  0  0  0  0  0  0  0  0  0
   63.2016  -74.6522  -18.1735 H   0  0  0  0  0  0  0  0  0  0  0  0
   64.9119  -74.3023  -18.5206 H   0  0  0  0  0  0  0  0  0  0  0  0
   64.2953  -75.9653  -18.6711 H   0  0  0  0  0  0  0  0  0  0  0  0
   67.8069  -73.2408  -13.0112 H   0  0  0  0  0  0  0  0  0  0  0  0
   67.2795  -74.9403  -13.0576 H   0  0  0  0  0  0  0  0  0  0  0  0
   67.8671  -74.1501  -14.5403 H   0  0  0  0  0  0  0  0  0  0  0  0
   63.9790  -78.0097  -13.4070 H   0  0  0  0  0  0  0  0  0  0  0  0
   64.0862  -80.3416  -13.5218 H   0  0  0  0  0  0  0  0  0  0  0  0
   64.6232  -81.7939  -18.1874 H   0  0  0  0  0  0  0  0  0  0  0  0
   62.7821  -81.9420  -19.8157 H   0  0  0  0  0  0  0  0  0  0  0  0
   60.4479  -81.9912  -19.0348 H   0  0  0  0  0  0  0  0  0  0  0  0
   59.9532  -81.8920  -16.6247 H   0  0  0  0  0  0  0  0  0  0  0  0
  1  2  1  0  0  0  0
  2  3  2  0  0  0  0
  3  4  1  0  0  0  0
  4  5  2  0  0  0  0
  5  6  1  0  0  0  0
  6  7  2  0  0  0  0
  2  7  1  0  0  0  0
  6  8  1  0  0  0  0
  8  9  1  0  0  0  0
  4 10  1  0  0  0  0
 10 11  1  0  0  0  0
 11 12  2  0  0  0  0
 11 13  1  0  0  0  0
 13 14  1  0  0  0  0
 14 15  2  0  0  0  0
 14 16  2  0  0  0  0
 14 17  1  0  0  0  0
 17 18  2  0  0  0  0
 18 19  1  0  0  0  0
 19 20  2  0  0  0  0
 20 21  1  0  0  0  0
 21 22  2  0  0  0  0
 17 22  1  0  0  0  0
 22 23  1  0  0  0  0
  1 24  1  0  0  0  0
  1 25  1  0  0  0  0
  1 26  1  0  0  0  0
  9 27  1  0  0  0  0
  9 28  1  0  0  0  0
  9 29  1  0  0  0  0
 10 30  1  0  0  0  0
 13 31  1  0  0  0  0
 18 32  1  0  0  0  0
 19 33  1  0  0  0  0
 20 34  1  0  0  0  0
 21 35  1  0  0  0  0
M  END
> <Gold.Version>
2021.2.0

> <Gold.Id.Protein>
5K6Q|5K6Q_protein|mol2

> <Gold.PLP.Fitness>
23.8598

> <Gold.PLP.PLP>
-15.9310

> <Gold.PLP.part.hbond>
-7.2763

> <Gold.PLP.part.metal>
0.0000

> <Gold.PLP.part.buried>
-1.4924

> <Gold.PLP.part.nonpolar>
-10.5289

> <Gold.PLP.part.repulsive>
0.8535

> <Gold.PLP.ligand.clash>
0.0000

> <Gold.PLP.ligand.torsion>
1.9577

> <Gold.PLP.Chemscore.Hbond>
2.8579

> <Gold.PLP.Chemscore.CHOScore>
0.0000

> <Gold.PLP.Chemscore.Metal>
0.0000

> <Gold.Chemscore.Hbonds>
donor molecule, donor type, donor heavy atom, donor atom, acceptor molecule, acceptor atom, score
      L1  H    10    30       P1  2231  0.59
      L1  H    13    31       P1  2231  0.98
      P1  H  4723  8580       L1    15  0.45
      P1  H  4725  8552       L1    16  0.84

> <Gold.PLP.Chemscore.Internal.Correction>
3.2706

> <Gold.Protein.RotatedTorsions>
[ 5877 1703 1702 1700 ] final   50.06 input   60.01 | X-H torsion
[ 6057 1881 1880 1877 ] final  -85.07 input   60.00 | X-H torsion
[ 7193 2255 2254 2251 ] final    6.90 input   60.00 | X-H torsion
[ 7182 2269 2268 2267 ] final  -54.15 input   59.99 | X-H torsion
[ 6931 4361 4360 4357 ] final    2.94 input   60.01 | X-H torsion
[ 8180 4471 4470 4468 ] final   37.96 input   60.00 | X-H torsion
[ 8184 4473 4472 4470 ] final    2.84 input   60.00 | X-H torsion
[ 8203 4505 4504 4503 ] final   17.33 input   60.00 | X-H torsion
[ 8212 4507 4506 4504 ] final   47.36 input   60.00 | X-H torsion
[ 8221 4509 4508 4506 ] final -172.34 input   60.00 | X-H torsion

> <Gold.Protein.ActiveResidues>
 TYR305  THR331  LEU332  MET333  LEU349  GLY350  MET351  HIS352  GLY353  ASN358 
 VAL372  ARG373  PHE374  ASP375  ASP376  ARG377  VAL378  THR379  GLY380  LYS381 
 LEU382  PHE385  ASN404  GLY508  GLY509  TRP574  ILE651  PRO652  SER653  GLY654 
 GLY655  FAD702  HOH839  HOH865  HOH881  HOH913  HOH945  HOH958  HOH960  HOH966 
 HOH968 

> <Gold.Protein.RotatedAtoms>
   61.2452  -73.7398   -3.1762 H   0  0  0  0  0  0  0  0  0  0  0  0  # atno 5877 bound_to 1703
   61.7155  -67.3983   -4.0372 H   0  0  0  0  0  0  0  0  0  0  0  0  # atno 6057 bound_to 1881
   69.5040  -80.9283  -11.1460 H   0  0  0  0  0  0  0  0  0  0  0  0  # atno 6931 bound_to 4361
   62.1130  -90.5261   -2.2929 H   0  0  0  0  0  0  0  0  0  0  0  0  # atno 7182 bound_to 2269
   63.6189  -90.1258   -1.7275 H   0  0  0  0  0  0  0  0  0  0  0  0  # atno 7183 bound_to 2269
   62.2661  -89.5569   -0.9570 H   0  0  0  0  0  0  0  0  0  0  0  0  # atno 7184 bound_to 2269
   62.2187  -80.2239   -5.7799 H   0  0  0  0  0  0  0  0  0  0  0  0  # atno 7193 bound_to 2255
   53.0053  -69.5411   -6.8117 H   0  0  0  0  0  0  0  0  0  0  0  0  # atno 8180 bound_to 4471
   51.4133  -68.6272   -8.5298 H   0  0  0  0  0  0  0  0  0  0  0  0  # atno 8184 bound_to 4473
   65.2865  -72.3247  -11.8464 H   0  0  0  0  0  0  0  0  0  0  0  0  # atno 8203 bound_to 4505
   63.4658  -70.0066  -11.7403 H   0  0  0  0  0  0  0  0  0  0  0  0  # atno 8212 bound_to 4507
   62.6831  -71.5098   -6.9149 H   0  0  0  0  0  0  0  0  0  0  0  0  # atno 8221 bound_to 4509
   60.0406  -72.8263   -3.7781 LP  0  0  0  0  0  0  0  0  0  0  0  0  # atno 9612 bound_to 1703
   59.7382  -74.3472   -3.2662 LP  0  0  0  0  0  0  0  0  0  0  0  0  # atno 9613 bound_to 1703
   61.7620  -67.9827   -5.5552 LP  0  0  0  0  0  0  0  0  0  0  0  0  # atno 9616 bound_to 1881
   62.9355  -66.9768   -5.0282 LP  0  0  0  0  0  0  0  0  0  0  0  0  # atno 9617 bound_to 1881
   60.7942  -79.4490   -5.9151 LP  0  0  0  0  0  0  0  0  0  0  0  0  # atno 9661 bound_to 2255
   60.8384  -80.9990   -5.4031 LP  0  0  0  0  0  0  0  0  0  0  0  0  # atno 9662 bound_to 2255
   68.4257  -81.1325  -12.3475 LP  0  0  0  0  0  0  0  0  0  0  0  0  # atno 9687 bound_to 4361
   69.9985  -81.5009  -12.5868 LP  0  0  0  0  0  0  0  0  0  0  0  0  # atno 9688 bound_to 4361
   53.6917  -70.2103   -8.1267 LP  0  0  0  0  0  0  0  0  0  0  0  0  # atno 9695 bound_to 4471
   52.1972  -69.5594   -8.2241 LP  0  0  0  0  0  0  0  0  0  0  0  0  # atno 9696 bound_to 4471
   51.0059  -67.1858   -9.1658 LP  0  0  0  0  0  0  0  0  0  0  0  0  # atno 9697 bound_to 4473
   50.7393  -67.4879   -7.5833 LP  0  0  0  0  0  0  0  0  0  0  0  0  # atno 9698 bound_to 4473
   63.7031  -72.0259  -12.0736 LP  0  0  0  0  0  0  0  0  0  0  0  0  # atno 9706 bound_to 4505
   64.1780  -73.3845  -11.3021 LP  0  0  0  0  0  0  0  0  0  0  0  0  # atno 9707 bound_to 4505
   63.6926  -69.1431  -10.3798 LP  0  0  0  0  0  0  0  0  0  0  0  0  # atno 9708 bound_to 4507
   62.1838  -69.3806  -10.9576 LP  0  0  0  0  0  0  0  0  0  0  0  0  # atno 9709 bound_to 4507
   63.9604  -71.8999   -7.8446 LP  0  0  0  0  0  0  0  0  0  0  0  0  # atno 9710 bound_to 4509
   62.4815  -72.4997   -8.1907 LP  0  0  0  0  0  0  0  0  0  0  0  0  # atno 9711 bound_to 4509

$$$$
