C12H12ClN5O4S|Chlorsulfuron|mol|1|dock9
  -GOLD-   2292221533D 1   1.00000     0.00000
 
 35 36  0  0  0  0  0  0  0  0  1 V2000
   67.3853  -73.9836  -13.7445 C   0  0  0  0  0  0  0  0  0  0  0  0
   66.4576  -74.9225  -14.4720 C   0  0  0  0  0  0  0  0  0  0  0  0
   65.3190  -75.2899  -13.9113 N   0  0  0  0  0  0  0  0  0  0  0  0
   64.4984  -76.1184  -14.5511 C   0  0  0  0  0  0  0  0  0  0  0  0
   64.8250  -76.5759  -15.7541 N   0  0  0  0  0  0  0  0  0  0  0  0
   65.9694  -76.2045  -16.3139 C   0  0  0  0  0  0  0  0  0  0  0  0
   66.7824  -75.3723  -15.6719 N   0  0  0  0  0  0  0  0  0  0  0  0
   66.3058  -76.6690  -17.5394 O   0  0  0  0  0  0  0  0  0  0  0  0
   66.4596  -75.5280  -18.3857 C   0  0  0  0  0  0  0  0  0  0  0  0
   63.3048  -76.5039  -13.9629 N   0  0  0  0  0  0  0  0  0  0  0  0
   62.1341  -76.0538  -14.4564 C   0  0  0  0  0  0  0  0  0  0  0  0
   62.1256  -75.3095  -15.4175 O   0  0  0  0  0  0  0  0  0  0  0  0
   60.9729  -76.4287  -13.8841 N   0  0  0  0  0  0  0  0  0  0  0  0
   59.5432  -75.7783  -14.4089 S   0  0  0  0  0  0  0  0  0  0  0  0
   58.5220  -76.6111  -13.8774 O   0  0  0  0  0  0  0  0  0  0  0  0
   59.6556  -74.3776  -14.1972 O   0  0  0  0  0  0  0  0  0  0  0  0
   59.4762  -75.9944  -16.1563 C   0  0  0  0  0  0  0  0  0  0  0  0
   59.6185  -74.9042  -16.9935 C   0  0  0  0  0  0  0  0  0  0  0  0
   59.5657  -75.0735  -18.3646 C   0  0  0  0  0  0  0  0  0  0  0  0
   59.3702  -76.3332  -18.8989 C   0  0  0  0  0  0  0  0  0  0  0  0
   59.2273  -77.4245  -18.0625 C   0  0  0  0  0  0  0  0  0  0  0  0
   59.2865  -77.2566  -16.6906 C   0  0  0  0  0  0  0  0  0  0  0  0
   59.1076  -78.6267  -15.6396 Cl  0  0  0  0  0  0  0  0  0  0  0  0
   68.0815  -74.5601  -13.1355 H   0  0  0  0  0  0  0  0  0  0  0  0
   67.9423  -73.3894  -14.4690 H   0  0  0  0  0  0  0  0  0  0  0  0
   66.8030  -73.3222  -13.1029 H   0  0  0  0  0  0  0  0  0  0  0  0
   66.7323  -75.8542  -19.3894 H   0  0  0  0  0  0  0  0  0  0  0  0
   65.5206  -74.9760  -18.4256 H   0  0  0  0  0  0  0  0  0  0  0  0
   67.2433  -74.8833  -17.9877 H   0  0  0  0  0  0  0  0  0  0  0  0
   63.3116  -77.0977  -13.1960 H   0  0  0  0  0  0  0  0  0  0  0  0
   60.9746  -77.0796  -13.1650 H   0  0  0  0  0  0  0  0  0  0  0  0
   59.7705  -73.9195  -16.5765 H   0  0  0  0  0  0  0  0  0  0  0  0
   59.6770  -74.2212  -19.0185 H   0  0  0  0  0  0  0  0  0  0  0  0
   59.3289  -76.4648  -19.9701 H   0  0  0  0  0  0  0  0  0  0  0  0
   59.0738  -78.4086  -18.4800 H   0  0  0  0  0  0  0  0  0  0  0  0
  1  2  1  0  0  0  0
  2  3  2  0  0  0  0
  3  4  1  0  0  0  0
  4  5  2  0  0  0  0
  5  6  1  0  0  0  0
  6  7  2  0  0  0  0
  2  7  1  0  0  0  0
  6  8  1  0  0  0  0
  8  9  1  0  0  0  0
  4 10  1  0  0  0  0
 10 11  1  0  0  0  0
 11 12  2  0  0  0  0
 11 13  1  0  0  0  0
 13 14  1  0  0  0  0
 14 15  2  0  0  0  0
 14 16  2  0  0  0  0
 14 17  1  0  0  0  0
 17 18  2  0  0  0  0
 18 19  1  0  0  0  0
 19 20  2  0  0  0  0
 20 21  1  0  0  0  0
 21 22  2  0  0  0  0
 17 22  1  0  0  0  0
 22 23  1  0  0  0  0
  1 24  1  0  0  0  0
  1 25  1  0  0  0  0
  1 26  1  0  0  0  0
  9 27  1  0  0  0  0
  9 28  1  0  0  0  0
  9 29  1  0  0  0  0
 10 30  1  0  0  0  0
 13 31  1  0  0  0  0
 18 32  1  0  0  0  0
 19 33  1  0  0  0  0
 20 34  1  0  0  0  0
 21 35  1  0  0  0  0
M  END
> <Gold.Version>
2021.2.0

> <Gold.Id.Protein>
5K6Q|5K6Q_protein|mol2

> <Gold.PLP.Fitness>
28.7763

> <Gold.PLP.PLP>
-21.1164

> <Gold.PLP.part.hbond>
-4.4471

> <Gold.PLP.part.metal>
0.0000

> <Gold.PLP.part.buried>
-5.3335

> <Gold.PLP.part.nonpolar>
-12.8587

> <Gold.PLP.part.repulsive>
0.4510

> <Gold.PLP.ligand.clash>
0.0000

> <Gold.PLP.ligand.torsion>
2.2106

> <Gold.PLP.Chemscore.Hbond>
2.9344

> <Gold.PLP.Chemscore.CHOScore>
0.0000

> <Gold.PLP.Chemscore.Metal>
0.0000

> <Gold.Chemscore.Hbonds>
donor molecule, donor type, donor heavy atom, donor atom, acceptor molecule, acceptor atom, score
      L1  H    10    30       P1  2230  0.98
      L1  H    13    31       P1  2230  0.13
      P1  H  2203  7120       L1    16  1.00
      P1  H  4717  8548       L1     8  0.83

> <Gold.PLP.Chemscore.Internal.Correction>
3.2778

> <Gold.Protein.RotatedTorsions>
[ 5877 1703 1702 1700 ] final -148.30 input   60.01 | X-H torsion
[ 6057 1881 1880 1877 ] final  178.85 input   60.00 | X-H torsion
[ 7193 2255 2254 2251 ] final   26.45 input   60.00 | X-H torsion
[ 7182 2269 2268 2267 ] final   65.99 input   59.99 | X-H torsion
[ 6931 4361 4360 4357 ] final   90.59 input   60.01 | X-H torsion
[ 8180 4471 4470 4468 ] final   47.09 input   60.00 | X-H torsion
[ 8184 4473 4472 4470 ] final  -84.83 input   60.00 | X-H torsion
[ 8203 4505 4504 4503 ] final  -52.47 input   60.00 | X-H torsion
[ 8212 4507 4506 4504 ] final  121.22 input   60.00 | X-H torsion
[ 8221 4509 4508 4506 ] final -131.99 input   60.00 | X-H torsion

> <Gold.Protein.ActiveResidues>
 TYR305  THR331  LEU332  MET333  LEU349  GLY350  MET351  HIS352  GLY353  ASN358 
 VAL372  ARG373  PHE374  ASP375  ASP376  ARG377  VAL378  THR379  GLY380  LYS381 
 LEU382  PHE385  ASN404  GLY508  GLY509  TRP574  ILE651  PRO652  SER653  GLY654 
 GLY655  FAD702  HOH839  HOH865  HOH881  HOH913  HOH945  HOH958  HOH960  HOH966 
 HOH968 

> <Gold.Protein.RotatedAtoms>
   59.4324  -73.8149   -3.5295 H   0  0  0  0  0  0  0  0  0  0  0  0  # atno 5877 bound_to 1703
   61.5132  -68.0331   -5.2599 H   0  0  0  0  0  0  0  0  0  0  0  0  # atno 6057 bound_to 1881
   70.2185  -81.3885  -12.1253 H   0  0  0  0  0  0  0  0  0  0  0  0  # atno 6931 bound_to 4361
   63.6191  -90.1245   -1.7259 H   0  0  0  0  0  0  0  0  0  0  0  0  # atno 7182 bound_to 2269
   62.2640  -89.5577   -0.9578 H   0  0  0  0  0  0  0  0  0  0  0  0  # atno 7183 bound_to 2269
   62.1149  -90.5270   -2.2941 H   0  0  0  0  0  0  0  0  0  0  0  0  # atno 7184 bound_to 2269
   62.1735  -80.5211   -5.6770 H   0  0  0  0  0  0  0  0  0  0  0  0  # atno 7193 bound_to 2255
   52.8688  -69.4848   -6.8321 H   0  0  0  0  0  0  0  0  0  0  0  0  # atno 8180 bound_to 4471
   51.2224  -67.6304   -9.3369 H   0  0  0  0  0  0  0  0  0  0  0  0  # atno 8184 bound_to 4473
   64.4449  -71.7588  -12.1915 H   0  0  0  0  0  0  0  0  0  0  0  0  # atno 8203 bound_to 4505
   62.3815  -69.7807  -11.5433 H   0  0  0  0  0  0  0  0  0  0  0  0  # atno 8212 bound_to 4507
   62.2191  -71.8413   -7.2181 H   0  0  0  0  0  0  0  0  0  0  0  0  # atno 8221 bound_to 4509
   60.9065  -74.2987   -3.0385 LP  0  0  0  0  0  0  0  0  0  0  0  0  # atno 9612 bound_to 1703
   60.6979  -72.7990   -3.6500 LP  0  0  0  0  0  0  0  0  0  0  0  0  # atno 9613 bound_to 1703
   62.8787  -67.1549   -5.3713 LP  0  0  0  0  0  0  0  0  0  0  0  0  # atno 9616 bound_to 1881
   62.0225  -67.1653   -3.9809 LP  0  0  0  0  0  0  0  0  0  0  0  0  # atno 9617 bound_to 1881
   61.0903  -79.3441   -5.9760 LP  0  0  0  0  0  0  0  0  0  0  0  0  # atno 9661 bound_to 2255
   60.5878  -80.8046   -5.4458 LP  0  0  0  0  0  0  0  0  0  0  0  0  # atno 9662 bound_to 2255
   68.9895  -80.8511  -11.2040 LP  0  0  0  0  0  0  0  0  0  0  0  0  # atno 9687 bound_to 4361
   68.7151  -81.3190  -12.7443 LP  0  0  0  0  0  0  0  0  0  0  0  0  # atno 9688 bound_to 4361
   53.7565  -70.2030   -7.9915 LP  0  0  0  0  0  0  0  0  0  0  0  0  # atno 9695 bound_to 4471
   52.2699  -69.6234   -8.3388 LP  0  0  0  0  0  0  0  0  0  0  0  0  # atno 9696 bound_to 4471
   50.6620  -67.0843   -7.9101 LP  0  0  0  0  0  0  0  0  0  0  0  0  # atno 9697 bound_to 4473
   51.2754  -68.5933   -8.0262 LP  0  0  0  0  0  0  0  0  0  0  0  0  # atno 9698 bound_to 4473
   63.5496  -72.9620  -11.5599 LP  0  0  0  0  0  0  0  0  0  0  0  0  # atno 9706 bound_to 4505
   65.1790  -73.0182  -11.4682 LP  0  0  0  0  0  0  0  0  0  0  0  0  # atno 9707 bound_to 4505
   63.9880  -69.7564  -11.2854 LP  0  0  0  0  0  0  0  0  0  0  0  0  # atno 9708 bound_to 4507
   62.9804  -68.9948  -10.2503 LP  0  0  0  0  0  0  0  0  0  0  0  0  # atno 9709 bound_to 4507
   63.8162  -71.5459   -7.3184 LP  0  0  0  0  0  0  0  0  0  0  0  0  # atno 9710 bound_to 4509
   63.0929  -72.5199   -8.4115 LP  0  0  0  0  0  0  0  0  0  0  0  0  # atno 9711 bound_to 4509

$$$$
