C12H12ClN5O4S|Chlorsulfuron|mol|1|dock38
  -GOLD-   2292221543D 1   1.00000     0.00000
 
 35 36  0  0  0  0  0  0  0  0  1 V2000
   63.0286  -74.4819  -18.4020 C   0  0  0  0  0  0  0  0  0  0  0  0
   62.2531  -75.0690  -17.2509 C   0  0  0  0  0  0  0  0  0  0  0  0
   62.7982  -76.0102  -16.5007 N   0  0  0  0  0  0  0  0  0  0  0  0
   62.1160  -76.5301  -15.4840 C   0  0  0  0  0  0  0  0  0  0  0  0
   60.8863  -76.1019  -15.2240 N   0  0  0  0  0  0  0  0  0  0  0  0
   60.3423  -75.1565  -15.9797 C   0  0  0  0  0  0  0  0  0  0  0  0
   61.0310  -74.6373  -16.9906 N   0  0  0  0  0  0  0  0  0  0  0  0
   59.0892  -74.7180  -15.7181 O   0  0  0  0  0  0  0  0  0  0  0  0
   59.1964  -73.3305  -15.3935 C   0  0  0  0  0  0  0  0  0  0  0  0
   62.6876  -77.5172  -14.6979 N   0  0  0  0  0  0  0  0  0  0  0  0
   63.4552  -78.4694  -15.2641 C   0  0  0  0  0  0  0  0  0  0  0  0
   63.6459  -78.4621  -16.4647 O   0  0  0  0  0  0  0  0  0  0  0  0
   64.0112  -79.4299  -14.4993 N   0  0  0  0  0  0  0  0  0  0  0  0
   64.8492  -80.6704  -15.2073 S   0  0  0  0  0  0  0  0  0  0  0  0
   66.0389  -80.0884  -15.7221 O   0  0  0  0  0  0  0  0  0  0  0  0
   64.7940  -81.7497  -14.2845 O   0  0  0  0  0  0  0  0  0  0  0  0
   63.9257  -81.1950  -16.6132 C   0  0  0  0  0  0  0  0  0  0  0  0
   64.5304  -81.2545  -17.8543 C   0  0  0  0  0  0  0  0  0  0  0  0
   63.8059  -81.6661  -18.9576 C   0  0  0  0  0  0  0  0  0  0  0  0
   62.4763  -82.0178  -18.8200 C   0  0  0  0  0  0  0  0  0  0  0  0
   61.8702  -81.9583  -17.5791 C   0  0  0  0  0  0  0  0  0  0  0  0
   62.5964  -81.5528  -16.4737 C   0  0  0  0  0  0  0  0  0  0  0  0
   61.8360  -81.4784  -14.9148 Cl  0  0  0  0  0  0  0  0  0  0  0  0
   62.8327  -75.0605  -19.3047 H   0  0  0  0  0  0  0  0  0  0  0  0
   62.7197  -73.4484  -18.5587 H   0  0  0  0  0  0  0  0  0  0  0  0
   64.0943  -74.5123  -18.1752 H   0  0  0  0  0  0  0  0  0  0  0  0
   58.2062  -72.9312  -15.1740 H   0  0  0  0  0  0  0  0  0  0  0  0
   59.8385  -73.2100  -14.5210 H   0  0  0  0  0  0  0  0  0  0  0  0
   59.6263  -72.7920  -16.2381 H   0  0  0  0  0  0  0  0  0  0  0  0
   62.5353  -77.5231  -13.7399 H   0  0  0  0  0  0  0  0  0  0  0  0
   63.9207  -79.3943  -13.5342 H   0  0  0  0  0  0  0  0  0  0  0  0
   65.5691  -80.9791  -17.9626 H   0  0  0  0  0  0  0  0  0  0  0  0
   64.2789  -81.7124  -19.9274 H   0  0  0  0  0  0  0  0  0  0  0  0
   61.9108  -82.3390  -19.6823 H   0  0  0  0  0  0  0  0  0  0  0  0
   60.8311  -82.2324  -17.4718 H   0  0  0  0  0  0  0  0  0  0  0  0
  1  2  1  0  0  0  0
  2  3  2  0  0  0  0
  3  4  1  0  0  0  0
  4  5  2  0  0  0  0
  5  6  1  0  0  0  0
  6  7  2  0  0  0  0
  2  7  1  0  0  0  0
  6  8  1  0  0  0  0
  8  9  1  0  0  0  0
  4 10  1  0  0  0  0
 10 11  1  0  0  0  0
 11 12  2  0  0  0  0
 11 13  1  0  0  0  0
 13 14  1  0  0  0  0
 14 15  2  0  0  0  0
 14 16  2  0  0  0  0
 14 17  1  0  0  0  0
 17 18  2  0  0  0  0
 18 19  1  0  0  0  0
 19 20  2  0  0  0  0
 20 21  1  0  0  0  0
 21 22  2  0  0  0  0
 17 22  1  0  0  0  0
 22 23  1  0  0  0  0
  1 24  1  0  0  0  0
  1 25  1  0  0  0  0
  1 26  1  0  0  0  0
  9 27  1  0  0  0  0
  9 28  1  0  0  0  0
  9 29  1  0  0  0  0
 10 30  1  0  0  0  0
 13 31  1  0  0  0  0
 18 32  1  0  0  0  0
 19 33  1  0  0  0  0
 20 34  1  0  0  0  0
 21 35  1  0  0  0  0
M  END
> <Gold.Version>
2021.2.0

> <Gold.Id.Protein>
5K6Q|5K6Q_protein|mol2

> <Gold.PLP.Fitness>
21.4558

> <Gold.PLP.PLP>
-16.5594

> <Gold.PLP.part.hbond>
-5.2800

> <Gold.PLP.part.metal>
0.0000

> <Gold.PLP.part.buried>
-4.5532

> <Gold.PLP.part.nonpolar>
-8.5343

> <Gold.PLP.part.repulsive>
0.5216

> <Gold.PLP.ligand.clash>
0.0000

> <Gold.PLP.ligand.torsion>
1.9398

> <Gold.PLP.Chemscore.Hbond>
1.8351

> <Gold.PLP.Chemscore.CHOScore>
0.0000

> <Gold.PLP.Chemscore.Metal>
0.0000

> <Gold.Chemscore.Hbonds>
donor molecule, donor type, donor heavy atom, donor atom, acceptor molecule, acceptor atom, score
      L1  H    10    30       P1  2230  0.39
      L1  H    13    31       P1  2231  1.00
      P1  H  2242  7198       L1    15  0.33
      P1  H  4723  8580       L1    16  0.11

> <Gold.PLP.Chemscore.Internal.Correction>
3.2706

> <Gold.Protein.RotatedTorsions>
[ 5877 1703 1702 1700 ] final -175.17 input   60.01 | X-H torsion
[ 6057 1881 1880 1877 ] final   15.81 input   60.00 | X-H torsion
[ 7193 2255 2254 2251 ] final  140.39 input   60.00 | X-H torsion
[ 7182 2269 2268 2267 ] final -129.19 input   59.99 | X-H torsion
[ 6931 4361 4360 4357 ] final  -66.52 input   60.01 | X-H torsion
[ 8180 4471 4470 4468 ] final  -26.99 input   60.00 | X-H torsion
[ 8184 4473 4472 4470 ] final   96.67 input   60.00 | X-H torsion
[ 8203 4505 4504 4503 ] final   77.66 input   60.00 | X-H torsion
[ 8212 4507 4506 4504 ] final -124.35 input   60.00 | X-H torsion
[ 8221 4509 4508 4506 ] final  100.30 input   60.00 | X-H torsion

> <Gold.Protein.ActiveResidues>
 TYR305  THR331  LEU332  MET333  LEU349  GLY350  MET351  HIS352  GLY353  ASN358 
 VAL372  ARG373  PHE374  ASP375  ASP376  ARG377  VAL378  THR379  GLY380  LYS381 
 LEU382  PHE385  ASN404  GLY508  GLY509  TRP574  ILE651  PRO652  SER653  GLY654 
 GLY655  FAD702  HOH839  HOH865  HOH881  HOH913  HOH945  HOH958  HOH960  HOH966 
 HOH968 

> <Gold.Protein.RotatedAtoms>
   59.5848  -74.1843   -3.3576 H   0  0  0  0  0  0  0  0  0  0  0  0  # atno 5877 bound_to 1703
   62.8780  -66.8978   -4.7318 H   0  0  0  0  0  0  0  0  0  0  0  0  # atno 6057 bound_to 1881
   68.5333  -80.8993  -11.5877 H   0  0  0  0  0  0  0  0  0  0  0  0  # atno 6931 bound_to 4361
   61.7688  -89.8701   -1.3929 H   0  0  0  0  0  0  0  0  0  0  0  0  # atno 7182 bound_to 2269
   62.8267  -90.6248   -2.4219 H   0  0  0  0  0  0  0  0  0  0  0  0  # atno 7183 bound_to 2269
   63.4029  -89.7139   -1.1626 H   0  0  0  0  0  0  0  0  0  0  0  0  # atno 7184 bound_to 2269
   60.6627  -80.8679   -5.4288 H   0  0  0  0  0  0  0  0  0  0  0  0  # atno 7193 bound_to 2255
   53.7585  -70.0102   -7.2843 H   0  0  0  0  0  0  0  0  0  0  0  0  # atno 8180 bound_to 4471
   50.8786  -67.8838   -7.5141 H   0  0  0  0  0  0  0  0  0  0  0  0  # atno 8184 bound_to 4473
   65.0710  -73.1289  -11.4081 H   0  0  0  0  0  0  0  0  0  0  0  0  # atno 8203 bound_to 4505
   62.8921  -69.0042  -10.2728 H   0  0  0  0  0  0  0  0  0  0  0  0  # atno 8212 bound_to 4507
   63.8711  -71.6030   -7.4173 H   0  0  0  0  0  0  0  0  0  0  0  0  # atno 8221 bound_to 4509
   61.1775  -73.9619   -3.1089 LP  0  0  0  0  0  0  0  0  0  0  0  0  # atno 9612 bound_to 1703
   60.2735  -72.7639   -3.7526 LP  0  0  0  0  0  0  0  0  0  0  0  0  # atno 9613 bound_to 1703
   61.5128  -67.5893   -4.1781 LP  0  0  0  0  0  0  0  0  0  0  0  0  # atno 9616 bound_to 1881
   62.0142  -67.8742   -5.7059 LP  0  0  0  0  0  0  0  0  0  0  0  0  # atno 9617 bound_to 1881
   62.2052  -80.4333   -5.7115 LP  0  0  0  0  0  0  0  0  0  0  0  0  # atno 9661 bound_to 2255
   60.9945  -79.3661   -5.9603 LP  0  0  0  0  0  0  0  0  0  0  0  0  # atno 9662 bound_to 2255
   69.2661  -81.4789  -12.9200 LP  0  0  0  0  0  0  0  0  0  0  0  0  # atno 9687 bound_to 4361
   70.1355  -81.1838  -11.5696 LP  0  0  0  0  0  0  0  0  0  0  0  0  # atno 9688 bound_to 4361
   52.8501  -69.9660   -8.6337 LP  0  0  0  0  0  0  0  0  0  0  0  0  # atno 9695 bound_to 4471
   52.2802  -69.3313   -7.2412 LP  0  0  0  0  0  0  0  0  0  0  0  0  # atno 9696 bound_to 4471
   51.4446  -68.4686   -8.9232 LP  0  0  0  0  0  0  0  0  0  0  0  0  # atno 9697 bound_to 4473
   50.8391  -66.9538   -8.8488 LP  0  0  0  0  0  0  0  0  0  0  0  0  # atno 9698 bound_to 4473
   64.6099  -71.7728  -12.1804 LP  0  0  0  0  0  0  0  0  0  0  0  0  # atno 9706 bound_to 4505
   63.4882  -72.8277  -11.6367 LP  0  0  0  0  0  0  0  0  0  0  0  0  # atno 9707 bound_to 4505
   62.4364  -69.8220  -11.6037 LP  0  0  0  0  0  0  0  0  0  0  0  0  # atno 9708 bound_to 4507
   64.0177  -69.7112  -11.2115 LP  0  0  0  0  0  0  0  0  0  0  0  0  # atno 9709 bound_to 4507
   62.9682  -72.5379   -8.3965 LP  0  0  0  0  0  0  0  0  0  0  0  0  # atno 9710 bound_to 4509
   62.2774  -71.7680   -7.1329 LP  0  0  0  0  0  0  0  0  0  0  0  0  # atno 9711 bound_to 4509

$$$$
