C12H12ClN5O4S|Chlorsulfuron|mol|1|dock7
  -GOLD-   2292221533D 1   1.00000     0.00000
 
 35 36  0  0  0  0  0  0  0  0  1 V2000
   63.0440  -74.5248  -18.3388 C   0  0  0  0  0  0  0  0  0  0  0  0
   62.3022  -75.0823  -17.1513 C   0  0  0  0  0  0  0  0  0  0  0  0
   62.8436  -76.0477  -16.4298 N   0  0  0  0  0  0  0  0  0  0  0  0
   62.1911  -76.5415  -15.3811 C   0  0  0  0  0  0  0  0  0  0  0  0
   60.9948  -76.0629  -15.0603 N   0  0  0  0  0  0  0  0  0  0  0  0
   60.4544  -75.0933  -15.7874 C   0  0  0  0  0  0  0  0  0  0  0  0
   61.1136  -74.6004  -16.8306 N   0  0  0  0  0  0  0  0  0  0  0  0
   59.2353  -74.6035  -15.4638 O   0  0  0  0  0  0  0  0  0  0  0  0
   59.4112  -73.2150  -15.1755 C   0  0  0  0  0  0  0  0  0  0  0  0
   62.7587  -77.5541  -14.6250 N   0  0  0  0  0  0  0  0  0  0  0  0
   63.5000  -78.5074  -15.2235 C   0  0  0  0  0  0  0  0  0  0  0  0
   63.6703  -78.4789  -16.4268 O   0  0  0  0  0  0  0  0  0  0  0  0
   64.0522  -79.4926  -14.4880 N   0  0  0  0  0  0  0  0  0  0  0  0
   64.8563  -80.7325  -15.2352 S   0  0  0  0  0  0  0  0  0  0  0  0
   66.0478  -80.1609  -15.7572 O   0  0  0  0  0  0  0  0  0  0  0  0
   64.7965  -81.8299  -14.3343 O   0  0  0  0  0  0  0  0  0  0  0  0
   63.9011  -81.2111  -16.6364 C   0  0  0  0  0  0  0  0  0  0  0  0
   64.5141  -81.3915  -17.8617 C   0  0  0  0  0  0  0  0  0  0  0  0
   63.7648  -81.7669  -18.9613 C   0  0  0  0  0  0  0  0  0  0  0  0
   62.4022  -81.9616  -18.8358 C   0  0  0  0  0  0  0  0  0  0  0  0
   61.7877  -81.7810  -17.6108 C   0  0  0  0  0  0  0  0  0  0  0  0
   62.5380  -81.4117  -16.5088 C   0  0  0  0  0  0  0  0  0  0  0  0
   61.7671  -81.1852  -14.9699 Cl  0  0  0  0  0  0  0  0  0  0  0  0
   62.7796  -75.0920  -19.2313 H   0  0  0  0  0  0  0  0  0  0  0  0
   62.7715  -73.4788  -18.4792 H   0  0  0  0  0  0  0  0  0  0  0  0
   64.1173  -74.6006  -18.1649 H   0  0  0  0  0  0  0  0  0  0  0  0
   58.4505  -72.7748  -14.9082 H   0  0  0  0  0  0  0  0  0  0  0  0
   60.1068  -73.1018  -14.3440 H   0  0  0  0  0  0  0  0  0  0  0  0
   59.8106  -72.7091  -16.0546 H   0  0  0  0  0  0  0  0  0  0  0  0
   62.6228  -77.5769  -13.6648 H   0  0  0  0  0  0  0  0  0  0  0  0
   63.9787  -79.4752  -13.5209 H   0  0  0  0  0  0  0  0  0  0  0  0
   65.5788  -81.2389  -17.9604 H   0  0  0  0  0  0  0  0  0  0  0  0
   64.2443  -81.9078  -19.9187 H   0  0  0  0  0  0  0  0  0  0  0  0
   61.8173  -82.2545  -19.6952 H   0  0  0  0  0  0  0  0  0  0  0  0
   60.7229  -81.9323  -17.5131 H   0  0  0  0  0  0  0  0  0  0  0  0
  1  2  1  0  0  0  0
  2  3  2  0  0  0  0
  3  4  1  0  0  0  0
  4  5  2  0  0  0  0
  5  6  1  0  0  0  0
  6  7  2  0  0  0  0
  2  7  1  0  0  0  0
  6  8  1  0  0  0  0
  8  9  1  0  0  0  0
  4 10  1  0  0  0  0
 10 11  1  0  0  0  0
 11 12  2  0  0  0  0
 11 13  1  0  0  0  0
 13 14  1  0  0  0  0
 14 15  2  0  0  0  0
 14 16  2  0  0  0  0
 14 17  1  0  0  0  0
 17 18  2  0  0  0  0
 18 19  1  0  0  0  0
 19 20  2  0  0  0  0
 20 21  1  0  0  0  0
 21 22  2  0  0  0  0
 17 22  1  0  0  0  0
 22 23  1  0  0  0  0
  1 24  1  0  0  0  0
  1 25  1  0  0  0  0
  1 26  1  0  0  0  0
  9 27  1  0  0  0  0
  9 28  1  0  0  0  0
  9 29  1  0  0  0  0
 10 30  1  0  0  0  0
 13 31  1  0  0  0  0
 18 32  1  0  0  0  0
 19 33  1  0  0  0  0
 20 34  1  0  0  0  0
 21 35  1  0  0  0  0
M  END
> <Gold.Version>
2021.2.0

> <Gold.Id.Protein>
5K6Q|5K6Q_protein|mol2

> <Gold.PLP.Fitness>
21.6979

> <Gold.PLP.PLP>
-16.3407

> <Gold.PLP.part.hbond>
-5.4825

> <Gold.PLP.part.metal>
0.0000

> <Gold.PLP.part.buried>
-4.2421

> <Gold.PLP.part.nonpolar>
-9.1040

> <Gold.PLP.part.repulsive>
0.5699

> <Gold.PLP.ligand.clash>
0.0008

> <Gold.PLP.ligand.torsion>
1.9391

> <Gold.PLP.Chemscore.Hbond>
1.9816

> <Gold.PLP.Chemscore.CHOScore>
0.0000

> <Gold.PLP.Chemscore.Metal>
0.0000

> <Gold.Chemscore.Hbonds>
donor molecule, donor type, donor heavy atom, donor atom, acceptor molecule, acceptor atom, score
      L1  H    10    30       P1  2230  0.59
      L1  H    13    31       P1  2231  1.00
      P1  H  2242  7198       L1    15  0.30
      P1  H  4723  8580       L1    16  0.10

> <Gold.PLP.Chemscore.Internal.Correction>
3.2914

> <Gold.Protein.RotatedTorsions>
[ 5877 1703 1702 1700 ] final  139.67 input   60.01 | X-H torsion
[ 6057 1881 1880 1877 ] final  -10.12 input   60.00 | X-H torsion
[ 7193 2255 2254 2251 ] final  169.00 input   60.00 | X-H torsion
[ 7182 2269 2268 2267 ] final   33.38 input   59.99 | X-H torsion
[ 6931 4361 4360 4357 ] final   32.71 input   60.01 | X-H torsion
[ 8180 4471 4470 4468 ] final  -81.96 input   60.00 | X-H torsion
[ 8184 4473 4472 4470 ] final  173.42 input   60.00 | X-H torsion
[ 8203 4505 4504 4503 ] final   55.09 input   60.00 | X-H torsion
[ 8212 4507 4506 4504 ] final -167.54 input   60.00 | X-H torsion
[ 8221 4509 4508 4506 ] final    4.18 input   60.00 | X-H torsion

> <Gold.Protein.ActiveResidues>
 TYR305  THR331  LEU332  MET333  LEU349  GLY350  MET351  HIS352  GLY353  ASN358 
 VAL372  ARG373  PHE374  ASP375  ASP376  ARG377  VAL378  THR379  GLY380  LYS381 
 LEU382  PHE385  ASN404  GLY508  GLY509  TRP574  ILE651  PRO652  SER653  GLY654 
 GLY655  FAD702  HOH839  HOH865  HOH881  HOH913  HOH945  HOH958  HOH960  HOH966 
 HOH968 

> <Gold.Protein.RotatedAtoms>
   60.1759  -74.5101   -3.1098 H   0  0  0  0  0  0  0  0  0  0  0  0  # atno 5877 bound_to 1703
   62.6777  -66.8824   -4.3627 H   0  0  0  0  0  0  0  0  0  0  0  0  # atno 6057 bound_to 1881
   69.9260  -81.0674  -11.3300 H   0  0  0  0  0  0  0  0  0  0  0  0  # atno 6931 bound_to 4361
   63.4225  -90.4174   -2.1311 H   0  0  0  0  0  0  0  0  0  0  0  0  # atno 7182 bound_to 2269
   62.7953  -89.5131   -0.8916 H   0  0  0  0  0  0  0  0  0  0  0  0  # atno 7183 bound_to 2269
   61.7801  -90.2785   -1.9551 H   0  0  0  0  0  0  0  0  0  0  0  0  # atno 7184 bound_to 2269
   60.4064  -80.4962   -5.5300 H   0  0  0  0  0  0  0  0  0  0  0  0  # atno 7193 bound_to 2255
   53.6882  -70.2051   -8.1232 H   0  0  0  0  0  0  0  0  0  0  0  0  # atno 8180 bound_to 4471
   50.6767  -66.9496   -8.1756 H   0  0  0  0  0  0  0  0  0  0  0  0  # atno 8184 bound_to 4473
   65.2657  -72.8546  -11.5531 H   0  0  0  0  0  0  0  0  0  0  0  0  # atno 8203 bound_to 4505
   62.3320  -69.1854  -10.6309 H   0  0  0  0  0  0  0  0  0  0  0  0  # atno 8212 bound_to 4507
   63.3458  -72.4453   -8.3943 H   0  0  0  0  0  0  0  0  0  0  0  0  # atno 8221 bound_to 4509
   61.2155  -73.2830   -3.3578 LP  0  0  0  0  0  0  0  0  0  0  0  0  # atno 9612 bound_to 1703
   59.6401  -73.1147   -3.7532 LP  0  0  0  0  0  0  0  0  0  0  0  0  # atno 9613 bound_to 1703
   61.3565  -67.8234   -4.4940 LP  0  0  0  0  0  0  0  0  0  0  0  0  # atno 9616 bound_to 1881
   62.3721  -67.6556   -5.7616 LP  0  0  0  0  0  0  0  0  0  0  0  0  # atno 9617 bound_to 1881
   61.9999  -80.8244   -5.5633 LP  0  0  0  0  0  0  0  0  0  0  0  0  # atno 9661 bound_to 2255
   61.4578  -79.3493   -6.0066 LP  0  0  0  0  0  0  0  0  0  0  0  0  # atno 9662 bound_to 2255
   68.4011  -80.9743  -11.8905 LP  0  0  0  0  0  0  0  0  0  0  0  0  # atno 9687 bound_to 4361
   69.5980  -81.5190  -12.8586 LP  0  0  0  0  0  0  0  0  0  0  0  0  # atno 9688 bound_to 4361
   52.1978  -69.5600   -8.2251 LP  0  0  0  0  0  0  0  0  0  0  0  0  # atno 9695 bound_to 4471
   53.0034  -69.5410   -6.8048 LP  0  0  0  0  0  0  0  0  0  0  0  0  # atno 9696 bound_to 4471
   51.1631  -68.4531   -7.7871 LP  0  0  0  0  0  0  0  0  0  0  0  0  # atno 9697 bound_to 4473
   51.3239  -67.9100   -9.3187 LP  0  0  0  0  0  0  0  0  0  0  0  0  # atno 9698 bound_to 4473
   64.2414  -71.7666  -12.1975 LP  0  0  0  0  0  0  0  0  0  0  0  0  # atno 9706 bound_to 4505
   63.6606  -73.1102  -11.4735 LP  0  0  0  0  0  0  0  0  0  0  0  0  # atno 9707 bound_to 4505
   63.0656  -70.0192  -11.8203 LP  0  0  0  0  0  0  0  0  0  0  0  0  # atno 9708 bound_to 4507
   63.9527  -69.3315  -10.6343 LP  0  0  0  0  0  0  0  0  0  0  0  0  # atno 9709 bound_to 4507
   62.1303  -72.0039   -7.4065 LP  0  0  0  0  0  0  0  0  0  0  0  0  # atno 9710 bound_to 4509
   63.6443  -71.4538   -7.1389 LP  0  0  0  0  0  0  0  0  0  0  0  0  # atno 9711 bound_to 4509

$$$$
