C12H12ClN5O4S|Chlorsulfuron|mol|1|dock23
  -GOLD-   2292221533D 1   1.00000     0.00000
 
 35 36  0  0  0  0  0  0  0  0  1 V2000
   66.5804  -73.4160  -14.2306 C   0  0  0  0  0  0  0  0  0  0  0  0
   65.4394  -74.1986  -14.8281 C   0  0  0  0  0  0  0  0  0  0  0  0
   64.5558  -74.7827  -14.0383 N   0  0  0  0  0  0  0  0  0  0  0  0
   63.5478  -75.4740  -14.5630 C   0  0  0  0  0  0  0  0  0  0  0  0
   63.4306  -75.5764  -15.8817 N   0  0  0  0  0  0  0  0  0  0  0  0
   64.3201  -74.9883  -16.6715 C   0  0  0  0  0  0  0  0  0  0  0  0
   65.3218  -74.2946  -16.1413 N   0  0  0  0  0  0  0  0  0  0  0  0
   64.2043  -75.0909  -18.0158 O   0  0  0  0  0  0  0  0  0  0  0  0
   62.9256  -74.5554  -18.3623 C   0  0  0  0  0  0  0  0  0  0  0  0
   62.6217  -76.0867  -13.7347 N   0  0  0  0  0  0  0  0  0  0  0  0
   61.3034  -75.9440  -13.9760 C   0  0  0  0  0  0  0  0  0  0  0  0
   60.9270  -75.2775  -14.9204 O   0  0  0  0  0  0  0  0  0  0  0  0
   60.4023  -76.5400  -13.1701 N   0  0  0  0  0  0  0  0  0  0  0  0
   58.7844  -76.2633  -13.3896 S   0  0  0  0  0  0  0  0  0  0  0  0
   58.1450  -76.7671  -12.2250 O   0  0  0  0  0  0  0  0  0  0  0  0
   58.6827  -74.9308  -13.8726 O   0  0  0  0  0  0  0  0  0  0  0  0
   58.2485  -77.2946  -14.7140 C   0  0  0  0  0  0  0  0  0  0  0  0
   58.2913  -76.8281  -16.0141 C   0  0  0  0  0  0  0  0  0  0  0  0
   57.8708  -77.6371  -17.0534 C   0  0  0  0  0  0  0  0  0  0  0  0
   57.4069  -78.9128  -16.7927 C   0  0  0  0  0  0  0  0  0  0  0  0
   57.3632  -79.3805  -15.4926 C   0  0  0  0  0  0  0  0  0  0  0  0
   57.7899  -78.5738  -14.4530 C   0  0  0  0  0  0  0  0  0  0  0  0
   57.7358  -79.1606  -12.8201 Cl  0  0  0  0  0  0  0  0  0  0  0  0
   67.4313  -74.0784  -14.0716 H   0  0  0  0  0  0  0  0  0  0  0  0
   66.8665  -72.6139  -14.9110 H   0  0  0  0  0  0  0  0  0  0  0  0
   66.2686  -72.9898  -13.2771 H   0  0  0  0  0  0  0  0  0  0  0  0
   62.7863  -74.6168  -19.4416 H   0  0  0  0  0  0  0  0  0  0  0  0
   62.1444  -75.1275  -17.8619 H   0  0  0  0  0  0  0  0  0  0  0  0
   62.8707  -73.5132  -18.0476 H   0  0  0  0  0  0  0  0  0  0  0  0
   62.9220  -76.6185  -12.9810 H   0  0  0  0  0  0  0  0  0  0  0  0
   60.7016  -77.1311  -12.4617 H   0  0  0  0  0  0  0  0  0  0  0  0
   58.6531  -75.8311  -16.2183 H   0  0  0  0  0  0  0  0  0  0  0  0
   57.9044  -77.2721  -18.0693 H   0  0  0  0  0  0  0  0  0  0  0  0
   57.0783  -79.5442  -17.6050 H   0  0  0  0  0  0  0  0  0  0  0  0
   57.0000  -80.3769  -15.2890 H   0  0  0  0  0  0  0  0  0  0  0  0
  1  2  1  0  0  0  0
  2  3  2  0  0  0  0
  3  4  1  0  0  0  0
  4  5  2  0  0  0  0
  5  6  1  0  0  0  0
  6  7  2  0  0  0  0
  2  7  1  0  0  0  0
  6  8  1  0  0  0  0
  8  9  1  0  0  0  0
  4 10  1  0  0  0  0
 10 11  1  0  0  0  0
 11 12  2  0  0  0  0
 11 13  1  0  0  0  0
 13 14  1  0  0  0  0
 14 15  2  0  0  0  0
 14 16  2  0  0  0  0
 14 17  1  0  0  0  0
 17 18  2  0  0  0  0
 18 19  1  0  0  0  0
 19 20  2  0  0  0  0
 20 21  1  0  0  0  0
 21 22  2  0  0  0  0
 17 22  1  0  0  0  0
 22 23  1  0  0  0  0
  1 24  1  0  0  0  0
  1 25  1  0  0  0  0
  1 26  1  0  0  0  0
  9 27  1  0  0  0  0
  9 28  1  0  0  0  0
  9 29  1  0  0  0  0
 10 30  1  0  0  0  0
 13 31  1  0  0  0  0
 18 32  1  0  0  0  0
 19 33  1  0  0  0  0
 20 34  1  0  0  0  0
 21 35  1  0  0  0  0
M  END
> <Gold.Version>
2021.2.0

> <Gold.Id.Protein>
5K6Q|5K6Q_protein|mol2

> <Gold.PLP.Fitness>
26.4455

> <Gold.PLP.PLP>
-19.2613

> <Gold.PLP.part.hbond>
-5.1527

> <Gold.PLP.part.metal>
0.0000

> <Gold.PLP.part.buried>
-3.2884

> <Gold.PLP.part.nonpolar>
-13.1158

> <Gold.PLP.part.repulsive>
0.9495

> <Gold.PLP.ligand.clash>
0.0000

> <Gold.PLP.ligand.torsion>
1.8703

> <Gold.PLP.Chemscore.Hbond>
2.5514

> <Gold.PLP.Chemscore.CHOScore>
0.0000

> <Gold.PLP.Chemscore.Metal>
0.0000

> <Gold.Chemscore.Hbonds>
donor molecule, donor type, donor heavy atom, donor atom, acceptor molecule, acceptor atom, score
      L1  H    10    30       P1  2230  0.99
      L1  H    13    31       P1  2230  0.69
      P1  H  2203  7120       L1    16  0.85
      P1  H  4670  8503       L1    15  0.02

> <Gold.PLP.Chemscore.Internal.Correction>
3.2706

> <Gold.Protein.RotatedTorsions>
[ 5877 1703 1702 1700 ] final  -96.78 input   60.01 | X-H torsion
[ 6057 1881 1880 1877 ] final   71.84 input   60.00 | X-H torsion
[ 7193 2255 2254 2251 ] final  -39.75 input   60.00 | X-H torsion
[ 7182 2269 2268 2267 ] final  -40.90 input   59.99 | X-H torsion
[ 6931 4361 4360 4357 ] final -105.46 input   60.01 | X-H torsion
[ 8180 4471 4470 4468 ] final  126.89 input   60.00 | X-H torsion
[ 8184 4473 4472 4470 ] final  -12.92 input   60.00 | X-H torsion
[ 8203 4505 4504 4503 ] final  -75.75 input   60.00 | X-H torsion
[ 8212 4507 4506 4504 ] final   37.01 input   60.00 | X-H torsion
[ 8221 4509 4508 4506 ] final  -51.47 input   60.00 | X-H torsion

> <Gold.Protein.ActiveResidues>
 TYR305  THR331  LEU332  MET333  LEU349  GLY350  MET351  HIS352  GLY353  ASN358 
 VAL372  ARG373  PHE374  ASP375  ASP376  ARG377  VAL378  THR379  GLY380  LYS381 
 LEU382  PHE385  ASN404  GLY508  GLY509  TRP574  ILE651  PRO652  SER653  GLY654 
 GLY655  FAD702  HOH839  HOH865  HOH881  HOH913  HOH945  HOH958  HOH960  HOH966 
 HOH968 

> <Gold.Protein.RotatedAtoms>
   59.6829  -73.0748   -3.7568 H   0  0  0  0  0  0  0  0  0  0  0  0  # atno 5877 bound_to 1703
   62.7896  -67.2786   -5.5197 H   0  0  0  0  0  0  0  0  0  0  0  0  # atno 6057 bound_to 1881
   68.3925  -81.0698  -12.1713 H   0  0  0  0  0  0  0  0  0  0  0  0  # atno 6931 bound_to 4361
   62.3067  -90.5892   -2.3780 H   0  0  0  0  0  0  0  0  0  0  0  0  # atno 7182 bound_to 2269
   63.6137  -89.9961   -1.5489 H   0  0  0  0  0  0  0  0  0  0  0  0  # atno 7183 bound_to 2269
   62.0775  -89.6235   -1.0504 H   0  0  0  0  0  0  0  0  0  0  0  0  # atno 7184 bound_to 2269
   61.9078  -79.5776   -5.9677 H   0  0  0  0  0  0  0  0  0  0  0  0  # atno 7193 bound_to 2255
   52.1095  -69.3911   -7.7579 H   0  0  0  0  0  0  0  0  0  0  0  0  # atno 8180 bound_to 4471
   51.4413  -68.5479   -8.7722 H   0  0  0  0  0  0  0  0  0  0  0  0  # atno 8184 bound_to 4473
   64.0712  -71.8127  -12.1755 H   0  0  0  0  0  0  0  0  0  0  0  0  # atno 8203 bound_to 4505
   63.6155  -69.9741  -11.6692 H   0  0  0  0  0  0  0  0  0  0  0  0  # atno 8212 bound_to 4507
   62.4961  -72.4975   -8.1963 H   0  0  0  0  0  0  0  0  0  0  0  0  # atno 8221 bound_to 4509
   60.1192  -74.5093   -3.1246 LP  0  0  0  0  0  0  0  0  0  0  0  0  # atno 9612 bound_to 1703
   61.2330  -73.3338   -3.3349 LP  0  0  0  0  0  0  0  0  0  0  0  0  # atno 9613 bound_to 1703
   62.2034  -67.0584   -4.0177 LP  0  0  0  0  0  0  0  0  0  0  0  0  # atno 9616 bound_to 1881
   61.4126  -68.0217   -5.0729 LP  0  0  0  0  0  0  0  0  0  0  0  0  # atno 9617 bound_to 1881
   60.3662  -80.0172   -5.6883 LP  0  0  0  0  0  0  0  0  0  0  0  0  # atno 9661 bound_to 2255
   61.5795  -81.0817   -5.4407 LP  0  0  0  0  0  0  0  0  0  0  0  0  # atno 9662 bound_to 2255
   69.8591  -81.5186  -12.7154 LP  0  0  0  0  0  0  0  0  0  0  0  0  # atno 9687 bound_to 4361
   69.6843  -80.9723  -11.1865 LP  0  0  0  0  0  0  0  0  0  0  0  0  # atno 9688 bound_to 4361
   53.4442  -69.7683   -6.9069 LP  0  0  0  0  0  0  0  0  0  0  0  0  # atno 9695 bound_to 4471
   53.3468  -70.1525   -8.4910 LP  0  0  0  0  0  0  0  0  0  0  0  0  # atno 9696 bound_to 4471
   50.9020  -67.0281   -8.9895 LP  0  0  0  0  0  0  0  0  0  0  0  0  # atno 9697 bound_to 4473
   50.8150  -67.7255   -7.5155 LP  0  0  0  0  0  0  0  0  0  0  0  0  # atno 9698 bound_to 4473
   63.7856  -73.2192  -11.4084 LP  0  0  0  0  0  0  0  0  0  0  0  0  # atno 9706 bound_to 4505
   65.3193  -72.7068  -11.6359 LP  0  0  0  0  0  0  0  0  0  0  0  0  # atno 9707 bound_to 4505
   63.5500  -69.0840  -10.3085 LP  0  0  0  0  0  0  0  0  0  0  0  0  # atno 9708 bound_to 4507
   62.1757  -69.4724  -11.1004 LP  0  0  0  0  0  0  0  0  0  0  0  0  # atno 9709 bound_to 4507
   62.6682  -71.5137   -6.9115 LP  0  0  0  0  0  0  0  0  0  0  0  0  # atno 9710 bound_to 4509
   63.9621  -71.8913   -7.8334 LP  0  0  0  0  0  0  0  0  0  0  0  0  # atno 9711 bound_to 4509

$$$$
