C12H12ClN5O4S|Chlorsulfuron|mol|1|dock39
  -GOLD-   2292221543D 1   1.00000     0.00000
 
 35 36  0  0  0  0  0  0  0  0  1 V2000
   66.5996  -72.4916  -15.9969 C   0  0  0  0  0  0  0  0  0  0  0  0
   66.4920  -73.9107  -16.4926 C   0  0  0  0  0  0  0  0  0  0  0  0
   65.6648  -74.7545  -15.9012 N   0  0  0  0  0  0  0  0  0  0  0  0
   65.5677  -76.0076  -16.3366 C   0  0  0  0  0  0  0  0  0  0  0  0
   66.3033  -76.4096  -17.3664 N   0  0  0  0  0  0  0  0  0  0  0  0
   67.1328  -75.5592  -17.9577 C   0  0  0  0  0  0  0  0  0  0  0  0
   67.2213  -74.3071  -17.5214 N   0  0  0  0  0  0  0  0  0  0  0  0
   67.8844  -75.9653  -19.0071 O   0  0  0  0  0  0  0  0  0  0  0  0
   66.9765  -76.3940  -20.0239 C   0  0  0  0  0  0  0  0  0  0  0  0
   64.7008  -76.8922  -15.7161 N   0  0  0  0  0  0  0  0  0  0  0  0
   64.9745  -78.2119  -15.7106 C   0  0  0  0  0  0  0  0  0  0  0  0
   65.9821  -78.6259  -16.2501 O   0  0  0  0  0  0  0  0  0  0  0  0
   64.1310  -79.0726  -15.1070 N   0  0  0  0  0  0  0  0  0  0  0  0
   64.4000  -80.7035  -15.2078 S   0  0  0  0  0  0  0  0  0  0  0  0
   65.7429  -80.9001  -14.7871 O   0  0  0  0  0  0  0  0  0  0  0  0
   63.2580  -81.3197  -14.6286 O   0  0  0  0  0  0  0  0  0  0  0  0
   64.3645  -81.1387  -16.9149 C   0  0  0  0  0  0  0  0  0  0  0  0
   65.5444  -81.3921  -17.5881 C   0  0  0  0  0  0  0  0  0  0  0  0
   65.5168  -81.7335  -18.9276 C   0  0  0  0  0  0  0  0  0  0  0  0
   64.3092  -81.8211  -19.5942 C   0  0  0  0  0  0  0  0  0  0  0  0
   63.1282  -81.5674  -18.9220 C   0  0  0  0  0  0  0  0  0  0  0  0
   63.1548  -81.2321  -17.5801 C   0  0  0  0  0  0  0  0  0  0  0  0
   61.6722  -80.9139  -16.7351 Cl  0  0  0  0  0  0  0  0  0  0  0  0
   67.3743  -72.4315  -15.2325 H   0  0  0  0  0  0  0  0  0  0  0  0
   66.8575  -71.8351  -16.8280 H   0  0  0  0  0  0  0  0  0  0  0  0
   65.6450  -72.1818  -15.5718 H   0  0  0  0  0  0  0  0  0  0  0  0
   67.5391  -76.7321  -20.8942 H   0  0  0  0  0  0  0  0  0  0  0  0
   66.3667  -77.2139  -19.6444 H   0  0  0  0  0  0  0  0  0  0  0  0
   66.3312  -75.5630  -20.3088 H   0  0  0  0  0  0  0  0  0  0  0  0
   63.8967  -76.5619  -15.2857 H   0  0  0  0  0  0  0  0  0  0  0  0
   63.3665  -78.7367  -14.6135 H   0  0  0  0  0  0  0  0  0  0  0  0
   66.4884  -81.3232  -17.0679 H   0  0  0  0  0  0  0  0  0  0  0  0
   66.4392  -81.9315  -19.4534 H   0  0  0  0  0  0  0  0  0  0  0  0
   64.2882  -82.0876  -20.6407 H   0  0  0  0  0  0  0  0  0  0  0  0
   62.1848  -81.6351  -19.4431 H   0  0  0  0  0  0  0  0  0  0  0  0
  1  2  1  0  0  0  0
  2  3  2  0  0  0  0
  3  4  1  0  0  0  0
  4  5  2  0  0  0  0
  5  6  1  0  0  0  0
  6  7  2  0  0  0  0
  2  7  1  0  0  0  0
  6  8  1  0  0  0  0
  8  9  1  0  0  0  0
  4 10  1  0  0  0  0
 10 11  1  0  0  0  0
 11 12  2  0  0  0  0
 11 13  1  0  0  0  0
 13 14  1  0  0  0  0
 14 15  2  0  0  0  0
 14 16  2  0  0  0  0
 14 17  1  0  0  0  0
 17 18  2  0  0  0  0
 18 19  1  0  0  0  0
 19 20  2  0  0  0  0
 20 21  1  0  0  0  0
 21 22  2  0  0  0  0
 17 22  1  0  0  0  0
 22 23  1  0  0  0  0
  1 24  1  0  0  0  0
  1 25  1  0  0  0  0
  1 26  1  0  0  0  0
  9 27  1  0  0  0  0
  9 28  1  0  0  0  0
  9 29  1  0  0  0  0
 10 30  1  0  0  0  0
 13 31  1  0  0  0  0
 18 32  1  0  0  0  0
 19 33  1  0  0  0  0
 20 34  1  0  0  0  0
 21 35  1  0  0  0  0
M  END
> <Gold.Version>
2021.2.0

> <Gold.Id.Protein>
5K6Q|5K6Q_protein|mol2

> <Gold.PLP.Fitness>
21.4808

> <Gold.PLP.PLP>
-15.3438

> <Gold.PLP.part.hbond>
-4.4745

> <Gold.PLP.part.metal>
0.0000

> <Gold.PLP.part.buried>
-4.3485

> <Gold.PLP.part.nonpolar>
-6.3165

> <Gold.PLP.part.repulsive>
0.5136

> <Gold.PLP.ligand.clash>
0.0000

> <Gold.PLP.ligand.torsion>
1.6890

> <Gold.PLP.Chemscore.Hbond>
2.0815

> <Gold.PLP.Chemscore.CHOScore>
0.0000

> <Gold.PLP.Chemscore.Metal>
0.0000

> <Gold.Chemscore.Hbonds>
donor molecule, donor type, donor heavy atom, donor atom, acceptor molecule, acceptor atom, score
      P1  H  2242  7198       L1    15  0.99
      P1  H  4717  8548       L1     5  0.23
      P1  H  4723  8580       L1    15  0.86

> <Gold.PLP.Chemscore.Internal.Correction>
3.2706

> <Gold.Protein.RotatedTorsions>
[ 5877 1703 1702 1700 ] final   57.54 input   60.01 | X-H torsion
[ 6057 1881 1880 1877 ] final   24.79 input   60.00 | X-H torsion
[ 7193 2255 2254 2251 ] final   68.80 input   60.00 | X-H torsion
[ 7182 2269 2268 2267 ] final   51.14 input   59.99 | X-H torsion
[ 6931 4361 4360 4357 ] final  165.58 input   60.01 | X-H torsion
[ 8180 4471 4470 4468 ] final   11.12 input   60.00 | X-H torsion
[ 8184 4473 4472 4470 ] final -154.26 input   60.00 | X-H torsion
[ 8203 4505 4504 4503 ] final -160.86 input   60.00 | X-H torsion
[ 8212 4507 4506 4504 ] final   15.57 input   60.00 | X-H torsion
[ 8221 4509 4508 4506 ] final   79.14 input   60.00 | X-H torsion

> <Gold.Protein.ActiveResidues>
 TYR305  THR331  LEU332  MET333  LEU349  GLY350  MET351  HIS352  GLY353  ASN358 
 VAL372  ARG373  PHE374  ASP375  ASP376  ARG377  VAL378  THR379  GLY380  LYS381 
 LEU382  PHE385  ASN404  GLY508  GLY509  TRP574  ILE651  PRO652  SER653  GLY654 
 GLY655  FAD702  HOH839  HOH865  HOH881  HOH913  HOH945  HOH958  HOH960  HOH966 
 HOH968 

> <Gold.Protein.RotatedAtoms>
   61.2149  -73.8525   -3.1399 H   0  0  0  0  0  0  0  0  0  0  0  0  # atno 5877 bound_to 1703
   62.9137  -66.9301   -4.8701 H   0  0  0  0  0  0  0  0  0  0  0  0  # atno 6057 bound_to 1881
   69.3930  -81.4991  -12.9034 H   0  0  0  0  0  0  0  0  0  0  0  0  # atno 6931 bound_to 4361
   63.5652  -90.2660   -1.9214 H   0  0  0  0  0  0  0  0  0  0  0  0  # atno 7182 bound_to 2269
   62.5000  -89.5152   -0.8972 H   0  0  0  0  0  0  0  0  0  0  0  0  # atno 7183 bound_to 2269
   61.9328  -90.4278   -2.1592 H   0  0  0  0  0  0  0  0  0  0  0  0  # atno 7184 bound_to 2269
   61.7478  -81.0075   -5.4777 H   0  0  0  0  0  0  0  0  0  0  0  0  # atno 7193 bound_to 2255
   53.3878  -69.7341   -6.8842 H   0  0  0  0  0  0  0  0  0  0  0  0  # atno 8180 bound_to 4471
   50.7846  -66.9100   -8.6839 H   0  0  0  0  0  0  0  0  0  0  0  0  # atno 8184 bound_to 4473
   63.4878  -72.8046  -11.6468 H   0  0  0  0  0  0  0  0  0  0  0  0  # atno 8203 bound_to 4505
   63.8688  -69.8608  -11.4588 H   0  0  0  0  0  0  0  0  0  0  0  0  # atno 8212 bound_to 4507
   63.9581  -71.7869   -7.6944 H   0  0  0  0  0  0  0  0  0  0  0  0  # atno 8221 bound_to 4509
   60.1570  -72.7876   -3.7682 LP  0  0  0  0  0  0  0  0  0  0  0  0  # atno 9612 bound_to 1703
   59.6523  -74.2723   -3.3126 LP  0  0  0  0  0  0  0  0  0  0  0  0  # atno 9613 bound_to 1703
   61.5986  -67.4992   -4.0988 LP  0  0  0  0  0  0  0  0  0  0  0  0  # atno 9616 bound_to 1881
   61.8924  -67.9318   -5.6458 LP  0  0  0  0  0  0  0  0  0  0  0  0  # atno 9617 bound_to 1881
   61.7604  -79.4646   -5.9948 LP  0  0  0  0  0  0  0  0  0  0  0  0  # atno 9661 bound_to 2255
   60.3464  -80.1942   -5.6277 LP  0  0  0  0  0  0  0  0  0  0  0  0  # atno 9662 bound_to 2255
   70.0691  -81.1375  -11.4681 LP  0  0  0  0  0  0  0  0  0  0  0  0  # atno 9687 bound_to 4361
   68.4668  -80.9211  -11.6967 LP  0  0  0  0  0  0  0  0  0  0  0  0  # atno 9688 bound_to 4361
   53.4029  -70.1675   -8.4527 LP  0  0  0  0  0  0  0  0  0  0  0  0  # atno 9695 bound_to 4471
   52.1008  -69.4079   -7.8250 LP  0  0  0  0  0  0  0  0  0  0  0  0  # atno 9696 bound_to 4471
   50.9448  -68.0492   -7.5329 LP  0  0  0  0  0  0  0  0  0  0  0  0  # atno 9697 bound_to 4473
   51.4335  -68.3539   -9.0610 LP  0  0  0  0  0  0  0  0  0  0  0  0  # atno 9698 bound_to 4473
   65.0589  -73.1495  -11.3999 LP  0  0  0  0  0  0  0  0  0  0  0  0  # atno 9706 bound_to 4505
   64.6335  -71.7776  -12.1768 LP  0  0  0  0  0  0  0  0  0  0  0  0  # atno 9707 bound_to 4505
   63.2153  -69.0074  -10.2370 LP  0  0  0  0  0  0  0  0  0  0  0  0  # atno 9708 bound_to 4507
   62.2553  -69.6631  -11.3838 LP  0  0  0  0  0  0  0  0  0  0  0  0  # atno 9709 bound_to 4507
   62.6396  -72.5341   -8.2873 LP  0  0  0  0  0  0  0  0  0  0  0  0  # atno 9710 bound_to 4509
   62.5184  -71.5866   -6.9629 LP  0  0  0  0  0  0  0  0  0  0  0  0  # atno 9711 bound_to 4509

$$$$
