C12H12ClN5O4S|Chlorsulfuron|mol|1|dock46
  -GOLD-   2292221543D 1   1.00000     0.00000
 
 35 36  0  0  0  0  0  0  0  0  1 V2000
   66.7307  -73.4202  -13.9419 C   0  0  0  0  0  0  0  0  0  0  0  0
   65.9898  -74.5747  -14.5661 C   0  0  0  0  0  0  0  0  0  0  0  0
   64.8625  -75.0035  -14.0266 N   0  0  0  0  0  0  0  0  0  0  0  0
   64.2066  -76.0222  -14.5755 C   0  0  0  0  0  0  0  0  0  0  0  0
   64.6863  -76.6077  -15.6665 N   0  0  0  0  0  0  0  0  0  0  0  0
   65.8187  -76.1741  -16.2054 C   0  0  0  0  0  0  0  0  0  0  0  0
   66.4665  -75.1525  -15.6554 N   0  0  0  0  0  0  0  0  0  0  0  0
   66.3109  -76.7687  -17.3168 O   0  0  0  0  0  0  0  0  0  0  0  0
   66.4221  -75.7516  -18.3144 C   0  0  0  0  0  0  0  0  0  0  0  0
   63.0249  -76.4719  -14.0094 N   0  0  0  0  0  0  0  0  0  0  0  0
   61.8430  -75.9972  -14.4503 C   0  0  0  0  0  0  0  0  0  0  0  0
   61.8140  -75.1743  -15.3446 O   0  0  0  0  0  0  0  0  0  0  0  0
   60.6933  -76.4346  -13.8995 N   0  0  0  0  0  0  0  0  0  0  0  0
   59.2497  -75.7611  -14.3518 S   0  0  0  0  0  0  0  0  0  0  0  0
   58.2435  -76.5685  -13.7563 O   0  0  0  0  0  0  0  0  0  0  0  0
   59.4004  -74.3610  -14.1614 O   0  0  0  0  0  0  0  0  0  0  0  0
   59.0823  -75.9924  -16.0905 C   0  0  0  0  0  0  0  0  0  0  0  0
   59.8330  -76.9572  -16.7348 C   0  0  0  0  0  0  0  0  0  0  0  0
   59.7019  -77.1388  -18.0991 C   0  0  0  0  0  0  0  0  0  0  0  0
   58.8202  -76.3551  -18.8195 C   0  0  0  0  0  0  0  0  0  0  0  0
   58.0689  -75.3893  -18.1763 C   0  0  0  0  0  0  0  0  0  0  0  0
   58.1950  -75.2116  -16.8101 C   0  0  0  0  0  0  0  0  0  0  0  0
   57.2515  -73.9993  -16.0015 Cl  0  0  0  0  0  0  0  0  0  0  0  0
   67.4395  -73.7989  -13.2056 H   0  0  0  0  0  0  0  0  0  0  0  0
   67.2685  -72.8725  -14.7158 H   0  0  0  0  0  0  0  0  0  0  0  0
   66.0198  -72.7543  -13.4528 H   0  0  0  0  0  0  0  0  0  0  0  0
   66.8168  -76.1856  -19.2332 H   0  0  0  0  0  0  0  0  0  0  0  0
   65.4386  -75.3234  -18.5080 H   0  0  0  0  0  0  0  0  0  0  0  0
   67.0959  -74.9701  -17.9631 H   0  0  0  0  0  0  0  0  0  0  0  0
   63.0480  -77.1285  -13.2957 H   0  0  0  0  0  0  0  0  0  0  0  0
   60.7115  -77.1441  -13.2383 H   0  0  0  0  0  0  0  0  0  0  0  0
   60.5226  -77.5694  -16.1725 H   0  0  0  0  0  0  0  0  0  0  0  0
   60.2887  -77.8929  -18.6022 H   0  0  0  0  0  0  0  0  0  0  0  0
   58.7183  -76.4972  -19.8853 H   0  0  0  0  0  0  0  0  0  0  0  0
   57.3807  -74.7765  -18.7393 H   0  0  0  0  0  0  0  0  0  0  0  0
  1  2  1  0  0  0  0
  2  3  2  0  0  0  0
  3  4  1  0  0  0  0
  4  5  2  0  0  0  0
  5  6  1  0  0  0  0
  6  7  2  0  0  0  0
  2  7  1  0  0  0  0
  6  8  1  0  0  0  0
  8  9  1  0  0  0  0
  4 10  1  0  0  0  0
 10 11  1  0  0  0  0
 11 12  2  0  0  0  0
 11 13  1  0  0  0  0
 13 14  1  0  0  0  0
 14 15  2  0  0  0  0
 14 16  2  0  0  0  0
 14 17  1  0  0  0  0
 17 18  2  0  0  0  0
 18 19  1  0  0  0  0
 19 20  2  0  0  0  0
 20 21  1  0  0  0  0
 21 22  2  0  0  0  0
 17 22  1  0  0  0  0
 22 23  1  0  0  0  0
  1 24  1  0  0  0  0
  1 25  1  0  0  0  0
  1 26  1  0  0  0  0
  9 27  1  0  0  0  0
  9 28  1  0  0  0  0
  9 29  1  0  0  0  0
 10 30  1  0  0  0  0
 13 31  1  0  0  0  0
 18 32  1  0  0  0  0
 19 33  1  0  0  0  0
 20 34  1  0  0  0  0
 21 35  1  0  0  0  0
M  END
> <Gold.Version>
2021.2.0

> <Gold.Id.Protein>
5K6Q|5K6Q_protein|mol2

> <Gold.PLP.Fitness>
27.8307

> <Gold.PLP.PLP>
-21.4947

> <Gold.PLP.part.hbond>
-3.9006

> <Gold.PLP.part.metal>
0.0000

> <Gold.PLP.part.buried>
-5.4685

> <Gold.PLP.part.nonpolar>
-11.9471

> <Gold.PLP.part.repulsive>
0.4905

> <Gold.PLP.ligand.clash>
0.0000

> <Gold.PLP.ligand.torsion>
2.5233

> <Gold.PLP.Chemscore.Hbond>
2.7040

> <Gold.PLP.Chemscore.CHOScore>
0.0000

> <Gold.PLP.Chemscore.Metal>
0.0000

> <Gold.Chemscore.Hbonds>
donor molecule, donor type, donor heavy atom, donor atom, acceptor molecule, acceptor atom, score
      L1  H    10    30       P1  2230  1.00
      P1  H  2203  7120       L1    16  1.00
      P1  H  4717  8548       L1     8  0.70

> <Gold.PLP.Chemscore.Internal.Correction>
3.2706

> <Gold.Protein.RotatedTorsions>
[ 5877 1703 1702 1700 ] final  -32.41 input   60.01 | X-H torsion
[ 6057 1881 1880 1877 ] final    4.26 input   60.00 | X-H torsion
[ 7193 2255 2254 2251 ] final  170.17 input   60.00 | X-H torsion
[ 7182 2269 2268 2267 ] final   54.92 input   59.99 | X-H torsion
[ 6931 4361 4360 4357 ] final    1.83 input   60.01 | X-H torsion
[ 8180 4471 4470 4468 ] final   28.11 input   60.00 | X-H torsion
[ 8184 4473 4472 4470 ] final  157.94 input   60.00 | X-H torsion
[ 8203 4505 4504 4503 ] final  -41.60 input   60.00 | X-H torsion
[ 8212 4507 4506 4504 ] final  143.44 input   60.00 | X-H torsion
[ 8221 4509 4508 4506 ] final -152.58 input   60.00 | X-H torsion

> <Gold.Protein.ActiveResidues>
 TYR305  THR331  LEU332  MET333  LEU349  GLY350  MET351  HIS352  GLY353  ASN358 
 VAL372  ARG373  PHE374  ASP375  ASP376  ARG377  VAL378  THR379  GLY380  LYS381 
 LEU382  PHE385  ASN404  GLY508  GLY509  TRP574  ILE651  PRO652  SER653  GLY654 
 GLY655  FAD702  HOH839  HOH865  HOH881  HOH913  HOH945  HOH958  HOH960  HOH966 
 HOH968 

> <Gold.Protein.RotatedAtoms>
   60.6333  -72.7865   -3.6658 H   0  0  0  0  0  0  0  0  0  0  0  0  # atno 5877 bound_to 1703
   62.8054  -66.8764   -4.5592 H   0  0  0  0  0  0  0  0  0  0  0  0  # atno 6057 bound_to 1881
   69.4865  -80.9243  -11.1435 H   0  0  0  0  0  0  0  0  0  0  0  0  # atno 6931 bound_to 4361
   63.5848  -90.2309   -1.8727 H   0  0  0  0  0  0  0  0  0  0  0  0  # atno 7182 bound_to 2269
   62.4382  -89.5226   -0.9079 H   0  0  0  0  0  0  0  0  0  0  0  0  # atno 7183 bound_to 2269
   61.9749  -90.4556   -2.1971 H   0  0  0  0  0  0  0  0  0  0  0  0  # atno 7184 bound_to 2269
   60.4002  -80.4788   -5.5352 H   0  0  0  0  0  0  0  0  0  0  0  0  # atno 7193 bound_to 2255
   53.1513  -69.6083   -6.8155 H   0  0  0  0  0  0  0  0  0  0  0  0  # atno 8180 bound_to 4471
   50.6659  -67.0625   -7.9503 H   0  0  0  0  0  0  0  0  0  0  0  0  # atno 8184 bound_to 4473
   64.6201  -71.7796  -12.1735 H   0  0  0  0  0  0  0  0  0  0  0  0  # atno 8203 bound_to 4505
   62.2175  -69.5956  -11.2804 H   0  0  0  0  0  0  0  0  0  0  0  0  # atno 8212 bound_to 4507
   62.4175  -71.6530   -7.0252 H   0  0  0  0  0  0  0  0  0  0  0  0  # atno 8221 bound_to 4509
   59.4374  -73.8786   -3.5069 LP  0  0  0  0  0  0  0  0  0  0  0  0  # atno 9612 bound_to 1703
   60.9576  -74.2550   -3.0443 LP  0  0  0  0  0  0  0  0  0  0  0  0  # atno 9613 bound_to 1703
   61.4252  -67.7000   -4.3048 LP  0  0  0  0  0  0  0  0  0  0  0  0  # atno 9616 bound_to 1881
   62.1749  -67.7850   -5.7530 LP  0  0  0  0  0  0  0  0  0  0  0  0  # atno 9617 bound_to 1881
   61.9872  -80.8379   -5.5577 LP  0  0  0  0  0  0  0  0  0  0  0  0  # atno 9661 bound_to 2255
   61.4767  -79.3533   -6.0069 LP  0  0  0  0  0  0  0  0  0  0  0  0  # atno 9662 bound_to 2255
   68.4313  -81.1390  -12.3636 LP  0  0  0  0  0  0  0  0  0  0  0  0  # atno 9687 bound_to 4361
   70.0104  -81.4985  -12.5732 LP  0  0  0  0  0  0  0  0  0  0  0  0  # atno 9688 bound_to 4361
   53.6012  -70.2055   -8.2609 LP  0  0  0  0  0  0  0  0  0  0  0  0  # atno 9695 bound_to 4471
   52.1406  -69.4965   -8.0860 LP  0  0  0  0  0  0  0  0  0  0  0  0  # atno 9696 bound_to 4471
   51.2596  -68.5771   -7.9867 LP  0  0  0  0  0  0  0  0  0  0  0  0  # atno 9697 bound_to 4473
   51.2384  -67.6725   -9.3460 LP  0  0  0  0  0  0  0  0  0  0  0  0  # atno 9698 bound_to 4473
   63.4848  -72.8175  -11.6424 LP  0  0  0  0  0  0  0  0  0  0  0  0  # atno 9706 bound_to 4505
   65.0674  -73.1418  -11.4038 LP  0  0  0  0  0  0  0  0  0  0  0  0  # atno 9707 bound_to 4505
   63.7912  -69.9098  -11.5497 LP  0  0  0  0  0  0  0  0  0  0  0  0  # atno 9708 bound_to 4507
   63.3424  -69.0279  -10.2507 LP  0  0  0  0  0  0  0  0  0  0  0  0  # atno 9709 bound_to 4507
   63.9452  -71.7106   -7.5827 LP  0  0  0  0  0  0  0  0  0  0  0  0  # atno 9710 bound_to 4509
   62.7642  -72.5449   -8.3414 LP  0  0  0  0  0  0  0  0  0  0  0  0  # atno 9711 bound_to 4509

$$$$
