C12H12ClN5O4S|Chlorsulfuron|mol|1|dock50
  -GOLD-   2292221543D 1   1.00000     0.00000
 
 35 36  0  0  0  0  0  0  0  0  1 V2000
   58.5901  -77.5141  -17.6016 C   0  0  0  0  0  0  0  0  0  0  0  0
   59.3908  -77.0027  -16.4317 C   0  0  0  0  0  0  0  0  0  0  0  0
   60.4195  -77.6994  -15.9821 N   0  0  0  0  0  0  0  0  0  0  0  0
   61.1279  -77.2504  -14.9498 C   0  0  0  0  0  0  0  0  0  0  0  0
   60.7999  -76.1010  -14.3716 N   0  0  0  0  0  0  0  0  0  0  0  0
   59.7661  -75.4041  -14.8261 C   0  0  0  0  0  0  0  0  0  0  0  0
   59.0657  -75.8554  -15.8612 N   0  0  0  0  0  0  0  0  0  0  0  0
   59.4286  -74.2326  -14.2391 O   0  0  0  0  0  0  0  0  0  0  0  0
   59.4258  -73.2409  -15.2679 C   0  0  0  0  0  0  0  0  0  0  0  0
   62.2062  -77.9813  -14.4782 N   0  0  0  0  0  0  0  0  0  0  0  0
   63.0455  -78.5802  -15.3461 C   0  0  0  0  0  0  0  0  0  0  0  0
   62.8564  -78.4792  -16.5427 O   0  0  0  0  0  0  0  0  0  0  0  0
   64.0945  -79.2914  -14.8873 N   0  0  0  0  0  0  0  0  0  0  0  0
   65.0522  -80.1308  -15.9459 S   0  0  0  0  0  0  0  0  0  0  0  0
   65.3641  -79.2195  -16.9905 O   0  0  0  0  0  0  0  0  0  0  0  0
   66.0022  -80.8195  -15.1442 O   0  0  0  0  0  0  0  0  0  0  0  0
   64.0527  -81.3804  -16.6833 C   0  0  0  0  0  0  0  0  0  0  0  0
   64.0784  -81.5676  -18.0523 C   0  0  0  0  0  0  0  0  0  0  0  0
   63.2940  -82.5480  -18.6311 C   0  0  0  0  0  0  0  0  0  0  0  0
   62.4834  -83.3413  -17.8411 C   0  0  0  0  0  0  0  0  0  0  0  0
   62.4564  -83.1547  -16.4717 C   0  0  0  0  0  0  0  0  0  0  0  0
   63.2459  -82.1782  -15.8913 C   0  0  0  0  0  0  0  0  0  0  0  0
   63.2130  -81.9437  -14.1715 Cl  0  0  0  0  0  0  0  0  0  0  0  0
   57.7748  -78.1397  -17.2383 H   0  0  0  0  0  0  0  0  0  0  0  0
   58.1808  -76.6710  -18.1582 H   0  0  0  0  0  0  0  0  0  0  0  0
   59.2355  -78.1017  -18.2546 H   0  0  0  0  0  0  0  0  0  0  0  0
   59.1578  -72.2747  -14.8404 H   0  0  0  0  0  0  0  0  0  0  0  0
   60.4180  -73.1780  -15.7146 H   0  0  0  0  0  0  0  0  0  0  0  0
   58.6993  -73.5135  -16.0334 H   0  0  0  0  0  0  0  0  0  0  0  0
   62.3571  -78.0620  -13.5234 H   0  0  0  0  0  0  0  0  0  0  0  0
   64.2885  -79.3113  -13.9372 H   0  0  0  0  0  0  0  0  0  0  0  0
   64.7111  -80.9476  -18.6702 H   0  0  0  0  0  0  0  0  0  0  0  0
   63.3145  -82.6940  -19.7010 H   0  0  0  0  0  0  0  0  0  0  0  0
   61.8707  -84.1068  -18.2939 H   0  0  0  0  0  0  0  0  0  0  0  0
   61.8224  -83.7740  -15.8546 H   0  0  0  0  0  0  0  0  0  0  0  0
  1  2  1  0  0  0  0
  2  3  2  0  0  0  0
  3  4  1  0  0  0  0
  4  5  2  0  0  0  0
  5  6  1  0  0  0  0
  6  7  2  0  0  0  0
  2  7  1  0  0  0  0
  6  8  1  0  0  0  0
  8  9  1  0  0  0  0
  4 10  1  0  0  0  0
 10 11  1  0  0  0  0
 11 12  2  0  0  0  0
 11 13  1  0  0  0  0
 13 14  1  0  0  0  0
 14 15  2  0  0  0  0
 14 16  2  0  0  0  0
 14 17  1  0  0  0  0
 17 18  2  0  0  0  0
 18 19  1  0  0  0  0
 19 20  2  0  0  0  0
 20 21  1  0  0  0  0
 21 22  2  0  0  0  0
 17 22  1  0  0  0  0
 22 23  1  0  0  0  0
  1 24  1  0  0  0  0
  1 25  1  0  0  0  0
  1 26  1  0  0  0  0
  9 27  1  0  0  0  0
  9 28  1  0  0  0  0
  9 29  1  0  0  0  0
 10 30  1  0  0  0  0
 13 31  1  0  0  0  0
 18 32  1  0  0  0  0
 19 33  1  0  0  0  0
 20 34  1  0  0  0  0
 21 35  1  0  0  0  0
M  END
> <Gold.Version>
2021.2.0

> <Gold.Id.Protein>
5K6Q|5K6Q_protein|mol2

> <Gold.PLP.Fitness>
29.4378

> <Gold.PLP.PLP>
-15.5389

> <Gold.PLP.part.hbond>
-7.0000

> <Gold.PLP.part.metal>
0.0000

> <Gold.PLP.part.buried>
-4.0962

> <Gold.PLP.part.nonpolar>
-5.4904

> <Gold.PLP.part.repulsive>
0.4659

> <Gold.PLP.ligand.clash>
0.0000

> <Gold.PLP.ligand.torsion>
1.9661

> <Gold.PLP.Chemscore.Hbond>
4.8535

> <Gold.PLP.Chemscore.CHOScore>
0.0000

> <Gold.PLP.Chemscore.Metal>
0.0000

> <Gold.Chemscore.Hbonds>
donor molecule, donor type, donor heavy atom, donor atom, acceptor molecule, acceptor atom, score
      L1  H    10    30       P1  2230  0.88
      L1  H    13    31       P1  2231  1.00
      P1  H  2203  7120       L1     8  1.00
      P1  H  2242  7198       L1    16  0.98
      P1  H  4723  8580       L1    16  1.00

> <Gold.PLP.Chemscore.Internal.Correction>
3.2706

> <Gold.Protein.RotatedTorsions>
[ 5877 1703 1702 1700 ] final  -68.45 input   60.01 | X-H torsion
[ 6057 1881 1880 1877 ] final   76.59 input   60.00 | X-H torsion
[ 7193 2255 2254 2251 ] final -173.76 input   60.00 | X-H torsion
[ 7182 2269 2268 2267 ] final -119.94 input   59.99 | X-H torsion
[ 6931 4361 4360 4357 ] final  -75.08 input   60.01 | X-H torsion
[ 8180 4471 4470 4468 ] final   71.03 input   60.00 | X-H torsion
[ 8184 4473 4472 4470 ] final   86.66 input   60.00 | X-H torsion
[ 8203 4505 4504 4503 ] final   85.69 input   60.00 | X-H torsion
[ 8212 4507 4506 4504 ] final   88.56 input   60.00 | X-H torsion
[ 8221 4509 4508 4506 ] final  -22.36 input   60.00 | X-H torsion

> <Gold.Protein.ActiveResidues>
 TYR305  THR331  LEU332  MET333  LEU349  GLY350  MET351  HIS352  GLY353  ASN358 
 VAL372  ARG373  PHE374  ASP375  ASP376  ARG377  VAL378  THR379  GLY380  LYS381 
 LEU382  PHE385  ASN404  GLY508  GLY509  TRP574  ILE651  PRO652  SER653  GLY654 
 GLY655  FAD702  HOH839  HOH865  HOH881  HOH913  HOH945  HOH958  HOH960  HOH966 
 HOH968 

> <Gold.Protein.RotatedAtoms>
   60.0650  -72.8224   -3.7719 H   0  0  0  0  0  0  0  0  0  0  0  0  # atno 5877 bound_to 1703
   62.7499  -67.3249   -5.5675 H   0  0  0  0  0  0  0  0  0  0  0  0  # atno 6057 bound_to 1881
   68.4678  -80.9277  -11.7078 H   0  0  0  0  0  0  0  0  0  0  0  0  # atno 6931 bound_to 4361
   61.7270  -89.9573   -1.5132 H   0  0  0  0  0  0  0  0  0  0  0  0  # atno 7182 bound_to 2269
   62.9763  -90.6030   -2.3905 H   0  0  0  0  0  0  0  0  0  0  0  0  # atno 7183 bound_to 2269
   63.2950  -89.6484   -1.0735 H   0  0  0  0  0  0  0  0  0  0  0  0  # atno 7184 bound_to 2269
   60.3538  -80.2334   -5.6128 H   0  0  0  0  0  0  0  0  0  0  0  0  # atno 7193 bound_to 2255
   52.5313  -69.3743   -6.9892 H   0  0  0  0  0  0  0  0  0  0  0  0  # atno 8180 bound_to 4471
   50.9417  -68.0331   -7.5354 H   0  0  0  0  0  0  0  0  0  0  0  0  # atno 8184 bound_to 4473
   64.9744  -73.2081  -11.3678 H   0  0  0  0  0  0  0  0  0  0  0  0  # atno 8203 bound_to 4505
   62.8091  -69.9740  -11.7818 H   0  0  0  0  0  0  0  0  0  0  0  0  # atno 8212 bound_to 4507
   62.9258  -72.5358   -8.3843 H   0  0  0  0  0  0  0  0  0  0  0  0  # atno 8221 bound_to 4509
   59.7202  -74.3332   -3.2753 LP  0  0  0  0  0  0  0  0  0  0  0  0  # atno 9612 bound_to 1703
   61.2472  -73.7642   -3.1690 LP  0  0  0  0  0  0  0  0  0  0  0  0  # atno 9613 bound_to 1703
   62.2691  -67.0241   -4.0422 LP  0  0  0  0  0  0  0  0  0  0  0  0  # atno 9616 bound_to 1881
   61.3869  -68.0093   -5.0002 LP  0  0  0  0  0  0  0  0  0  0  0  0  # atno 9617 bound_to 1881
   61.7869  -80.9942   -5.4880 LP  0  0  0  0  0  0  0  0  0  0  0  0  # atno 9661 bound_to 2255
   61.7237  -79.4443   -5.9984 LP  0  0  0  0  0  0  0  0  0  0  0  0  # atno 9662 bound_to 2255
   69.4047  -81.5005  -12.9087 LP  0  0  0  0  0  0  0  0  0  0  0  0  # atno 9687 bound_to 4361
   70.0629  -81.1336  -11.4600 LP  0  0  0  0  0  0  0  0  0  0  0  0  # atno 9688 bound_to 4361
   53.8283  -70.1334   -7.6134 LP  0  0  0  0  0  0  0  0  0  0  0  0  # atno 9695 bound_to 4471
   52.5380  -69.8043   -8.5586 LP  0  0  0  0  0  0  0  0  0  0  0  0  # atno 9696 bound_to 4471
   51.4350  -68.3643   -9.0503 LP  0  0  0  0  0  0  0  0  0  0  0  0  # atno 9697 bound_to 4473
   50.7851  -66.9077   -8.7003 LP  0  0  0  0  0  0  0  0  0  0  0  0  # atno 9698 bound_to 4473
   64.7359  -71.8054  -12.1576 LP  0  0  0  0  0  0  0  0  0  0  0  0  # atno 9706 bound_to 4505
   63.4595  -72.7154  -11.7000 LP  0  0  0  0  0  0  0  0  0  0  0  0  # atno 9707 bound_to 4505
   64.0381  -69.4727  -10.8404 LP  0  0  0  0  0  0  0  0  0  0  0  0  # atno 9708 bound_to 4507
   62.4996  -69.0839  -10.4552 LP  0  0  0  0  0  0  0  0  0  0  0  0  # atno 9709 bound_to 4507
   62.3026  -71.7431   -7.1071 LP  0  0  0  0  0  0  0  0  0  0  0  0  # atno 9710 bound_to 4509
   63.8950  -71.6233   -7.4484 LP  0  0  0  0  0  0  0  0  0  0  0  0  # atno 9711 bound_to 4509

$$$$
