C12H12ClN5O4S|Chlorsulfuron|mol|1|dock33
  -GOLD-   2292221543D 1   1.00000     0.00000
 
 35 36  0  0  0  0  0  0  0  0  1 V2000
   57.8869  -78.0256  -16.5846 C   0  0  0  0  0  0  0  0  0  0  0  0
   58.9129  -77.3165  -15.7386 C   0  0  0  0  0  0  0  0  0  0  0  0
   60.0212  -77.9422  -15.3839 N   0  0  0  0  0  0  0  0  0  0  0  0
   60.9284  -77.3188  -14.6373 C   0  0  0  0  0  0  0  0  0  0  0  0
   60.7188  -76.0665  -14.2487 N   0  0  0  0  0  0  0  0  0  0  0  0
   59.6044  -75.4414  -14.6069 C   0  0  0  0  0  0  0  0  0  0  0  0
   58.7044  -76.0679  -15.3575 N   0  0  0  0  0  0  0  0  0  0  0  0
   59.3870  -74.1655  -14.2124 O   0  0  0  0  0  0  0  0  0  0  0  0
   59.2725  -73.3796  -15.4004 C   0  0  0  0  0  0  0  0  0  0  0  0
   62.0902  -77.9753  -14.2652 N   0  0  0  0  0  0  0  0  0  0  0  0
   62.9458  -78.4175  -15.2080 C   0  0  0  0  0  0  0  0  0  0  0  0
   62.6980  -78.2405  -16.3849 O   0  0  0  0  0  0  0  0  0  0  0  0
   64.0761  -79.0563  -14.8460 N   0  0  0  0  0  0  0  0  0  0  0  0
   65.0643  -79.7103  -16.0028 S   0  0  0  0  0  0  0  0  0  0  0  0
   65.3928  -78.6413  -16.8793 O   0  0  0  0  0  0  0  0  0  0  0  0
   66.0010  -80.5153  -15.3001 O   0  0  0  0  0  0  0  0  0  0  0  0
   64.0916  -80.8288  -16.9554 C   0  0  0  0  0  0  0  0  0  0  0  0
   64.2016  -80.8399  -18.3329 C   0  0  0  0  0  0  0  0  0  0  0  0
   63.4384  -81.7174  -19.0806 C   0  0  0  0  0  0  0  0  0  0  0  0
   62.5647  -82.5838  -18.4508 C   0  0  0  0  0  0  0  0  0  0  0  0
   62.4534  -82.5733  -17.0730 C   0  0  0  0  0  0  0  0  0  0  0  0
   63.2216  -81.7001  -16.3240 C   0  0  0  0  0  0  0  0  0  0  0  0
   63.0829  -81.6867  -14.5936 Cl  0  0  0  0  0  0  0  0  0  0  0  0
   57.1746  -78.5383  -15.9383 H   0  0  0  0  0  0  0  0  0  0  0  0
   57.3594  -77.2983  -17.2018 H   0  0  0  0  0  0  0  0  0  0  0  0
   58.3848  -78.7531  -17.2257 H   0  0  0  0  0  0  0  0  0  0  0  0
   59.0957  -72.3382  -15.1315 H   0  0  0  0  0  0  0  0  0  0  0  0
   60.1950  -73.4547  -15.9761 H   0  0  0  0  0  0  0  0  0  0  0  0
   58.4393  -73.7465  -15.9998 H   0  0  0  0  0  0  0  0  0  0  0  0
   62.2880  -78.1166  -13.3261 H   0  0  0  0  0  0  0  0  0  0  0  0
   64.3107  -79.1328  -13.9080 H   0  0  0  0  0  0  0  0  0  0  0  0
   64.8836  -80.1627  -18.8256 H   0  0  0  0  0  0  0  0  0  0  0  0
   63.5246  -81.7258  -20.1571 H   0  0  0  0  0  0  0  0  0  0  0  0
   61.9685  -83.2688  -19.0355 H   0  0  0  0  0  0  0  0  0  0  0  0
   61.7702  -83.2497  -16.5811 H   0  0  0  0  0  0  0  0  0  0  0  0
  1  2  1  0  0  0  0
  2  3  2  0  0  0  0
  3  4  1  0  0  0  0
  4  5  2  0  0  0  0
  5  6  1  0  0  0  0
  6  7  2  0  0  0  0
  2  7  1  0  0  0  0
  6  8  1  0  0  0  0
  8  9  1  0  0  0  0
  4 10  1  0  0  0  0
 10 11  1  0  0  0  0
 11 12  2  0  0  0  0
 11 13  1  0  0  0  0
 13 14  1  0  0  0  0
 14 15  2  0  0  0  0
 14 16  2  0  0  0  0
 14 17  1  0  0  0  0
 17 18  2  0  0  0  0
 18 19  1  0  0  0  0
 19 20  2  0  0  0  0
 20 21  1  0  0  0  0
 21 22  2  0  0  0  0
 17 22  1  0  0  0  0
 22 23  1  0  0  0  0
  1 24  1  0  0  0  0
  1 25  1  0  0  0  0
  1 26  1  0  0  0  0
  9 27  1  0  0  0  0
  9 28  1  0  0  0  0
  9 29  1  0  0  0  0
 10 30  1  0  0  0  0
 13 31  1  0  0  0  0
 18 32  1  0  0  0  0
 19 33  1  0  0  0  0
 20 34  1  0  0  0  0
 21 35  1  0  0  0  0
M  END
> <Gold.Version>
2021.2.0

> <Gold.Id.Protein>
5K6Q|5K6Q_protein|mol2

> <Gold.PLP.Fitness>
28.4861

> <Gold.PLP.PLP>
-15.8127

> <Gold.PLP.part.hbond>
-7.8439

> <Gold.PLP.part.metal>
0.0000

> <Gold.PLP.part.buried>
-3.7603

> <Gold.PLP.part.nonpolar>
-5.3462

> <Gold.PLP.part.repulsive>
0.5081

> <Gold.PLP.ligand.clash>
0.0000

> <Gold.PLP.ligand.torsion>
2.2376

> <Gold.PLP.Chemscore.Hbond>
4.6260

> <Gold.PLP.Chemscore.CHOScore>
0.0000

> <Gold.PLP.Chemscore.Metal>
0.0000

> <Gold.Chemscore.Hbonds>
donor molecule, donor type, donor heavy atom, donor atom, acceptor molecule, acceptor atom, score
      L1  H    10    30       P1  2230  0.85
      L1  H    13    31       P1  2231  1.00
      P1  H  2203  7120       L1     8  0.98
      P1  H  2242  7198       L1    16  0.80
      P1  H  4723  8580       L1    16  1.00

> <Gold.PLP.Chemscore.Internal.Correction>
3.2706

> <Gold.Protein.RotatedTorsions>
[ 5877 1703 1702 1700 ] final -167.00 input   60.01 | X-H torsion
[ 6057 1881 1880 1877 ] final  136.49 input   60.00 | X-H torsion
[ 7193 2255 2254 2251 ] final  -16.28 input   60.00 | X-H torsion
[ 7182 2269 2268 2267 ] final  -49.97 input   59.99 | X-H torsion
[ 6931 4361 4360 4357 ] final   20.95 input   60.01 | X-H torsion
[ 8180 4471 4470 4468 ] final  132.10 input   60.00 | X-H torsion
[ 8184 4473 4472 4470 ] final  119.91 input   60.00 | X-H torsion
[ 8203 4505 4504 4503 ] final -139.94 input   60.00 | X-H torsion
[ 8212 4507 4506 4504 ] final  -59.91 input   60.00 | X-H torsion
[ 8221 4509 4508 4506 ] final   71.93 input   60.00 | X-H torsion

> <Gold.Protein.ActiveResidues>
 TYR305  THR331  LEU332  MET333  LEU349  GLY350  MET351  HIS352  GLY353  ASN358 
 VAL372  ARG373  PHE374  ASP375  ASP376  ARG377  VAL378  THR379  GLY380  LYS381 
 LEU382  PHE385  ASN404  GLY508  GLY509  TRP574  ILE651  PRO652  SER653  GLY654 
 GLY655  FAD702  HOH839  HOH865  HOH881  HOH913  HOH945  HOH958  HOH960  HOH966 
 HOH968 

> <Gold.Protein.RotatedAtoms>
   59.5189  -74.0812   -3.4105 H   0  0  0  0  0  0  0  0  0  0  0  0  # atno 5877 bound_to 1703
   62.0070  -67.8778   -5.6955 H   0  0  0  0  0  0  0  0  0  0  0  0  # atno 6057 bound_to 1881
   69.7733  -81.0063  -11.2315 H   0  0  0  0  0  0  0  0  0  0  0  0  # atno 6931 bound_to 4361
   62.1714  -90.5488   -2.3236 H   0  0  0  0  0  0  0  0  0  0  0  0  # atno 7182 bound_to 2269
   63.6228  -90.0849   -1.6711 H   0  0  0  0  0  0  0  0  0  0  0  0  # atno 7183 bound_to 2269
   62.2038  -89.5751   -0.9826 H   0  0  0  0  0  0  0  0  0  0  0  0  # atno 7184 bound_to 2269
   62.1334  -79.8740   -5.8889 H   0  0  0  0  0  0  0  0  0  0  0  0  # atno 7193 bound_to 2255
   52.1080  -69.4126   -7.8402 H   0  0  0  0  0  0  0  0  0  0  0  0  # atno 8180 bound_to 4471
   50.7560  -67.5318   -7.5713 H   0  0  0  0  0  0  0  0  0  0  0  0  # atno 8184 bound_to 4473
   63.4603  -72.5087  -11.8120 H   0  0  0  0  0  0  0  0  0  0  0  0  # atno 8203 bound_to 4505
   63.8366  -69.2360  -10.4985 H   0  0  0  0  0  0  0  0  0  0  0  0  # atno 8212 bound_to 4507
   63.9596  -71.8565   -7.7893 H   0  0  0  0  0  0  0  0  0  0  0  0  # atno 8221 bound_to 4509
   61.1121  -74.0754   -3.0797 LP  0  0  0  0  0  0  0  0  0  0  0  0  # atno 9612 bound_to 1703
   60.4052  -72.7541   -3.7286 LP  0  0  0  0  0  0  0  0  0  0  0  0  # atno 9613 bound_to 1703
   62.8852  -66.8940   -4.7420 LP  0  0  0  0  0  0  0  0  0  0  0  0  # atno 9616 bound_to 1881
   61.5188  -67.5826   -4.1715 LP  0  0  0  0  0  0  0  0  0  0  0  0  # atno 9617 bound_to 1881
   60.5187  -79.6876   -5.8114 LP  0  0  0  0  0  0  0  0  0  0  0  0  # atno 9661 bound_to 2255
   61.1998  -81.1127   -5.3970 LP  0  0  0  0  0  0  0  0  0  0  0  0  # atno 9662 bound_to 2255
   68.3810  -81.0322  -12.0736 LP  0  0  0  0  0  0  0  0  0  0  0  0  # atno 9687 bound_to 4361
   69.7719  -81.5226  -12.7747 LP  0  0  0  0  0  0  0  0  0  0  0  0  # atno 9688 bound_to 4361
   53.3770  -69.7284   -6.8718 LP  0  0  0  0  0  0  0  0  0  0  0  0  # atno 9695 bound_to 4471
   53.4156  -70.1707   -8.4432 LP  0  0  0  0  0  0  0  0  0  0  0  0  # atno 9696 bound_to 4471
   51.4211  -68.6241   -8.5775 LP  0  0  0  0  0  0  0  0  0  0  0  0  # atno 9697 bound_to 4473
   50.9861  -67.1528   -9.1369 LP  0  0  0  0  0  0  0  0  0  0  0  0  # atno 9698 bound_to 4473
   64.7774  -73.3241  -11.3134 LP  0  0  0  0  0  0  0  0  0  0  0  0  # atno 9706 bound_to 4505
   64.9427  -71.9009  -12.0969 LP  0  0  0  0  0  0  0  0  0  0  0  0  # atno 9707 bound_to 4505
   62.2352  -69.2738  -10.7854 LP  0  0  0  0  0  0  0  0  0  0  0  0  # atno 9708 bound_to 4507
   63.2678  -70.0260  -11.8025 LP  0  0  0  0  0  0  0  0  0  0  0  0  # atno 9709 bound_to 4507
   62.5381  -72.5150   -8.2294 LP  0  0  0  0  0  0  0  0  0  0  0  0  # atno 9710 bound_to 4509
   62.6185  -71.5355   -6.9253 LP  0  0  0  0  0  0  0  0  0  0  0  0  # atno 9711 bound_to 4509

$$$$
